
 ANSYS Academic Teaching Introductory              


 *------------------------------------------------------------------*
 |                                                                  |
 |   W E L C O M E   T O   T H E   A N S Y S (R)  P R O G R A M     |
 |                                                                  |
 *------------------------------------------------------------------*




 ***************************************************************
 *            ANSYS Release 19.2     LEGAL NOTICES             *
 ***************************************************************
 *                                                             *
 * Copyright 1971-2018 ANSYS, Inc.  All rights reserved.       *
 * Unauthorized use, distribution or duplication is            *
 * prohibited.                                                 *
 *                                                             *
 * Ansys is a registered trademark of ANSYS, Inc. or its       *
 * subsidiaries in the United States or other countries.       *
 * See the ANSYS, Inc. online documentation or the ANSYS, Inc. *
 * documentation CD or online help for the complete Legal      *
 * Notice.                                                     *
 *                                                             *
 ***************************************************************
 *                                                             *
 * THIS ANSYS SOFTWARE PRODUCT AND PROGRAM DOCUMENTATION       *
 * INCLUDE TRADE SECRETS AND CONFIDENTIAL AND PROPRIETARY      *
 * PRODUCTS OF ANSYS, INC., ITS SUBSIDIARIES, OR LICENSORS.    *
 * The software products and documentation are furnished by    *
 * ANSYS, Inc. or its subsidiaries under a software license    *
 * agreement that contains provisions concerning               *
 * non-disclosure, copying, length and nature of use,          *
 * compliance with exporting laws, warranties, disclaimers,    *
 * limitations of liability, and remedies, and other           *
 * provisions.  The software products and documentation may be *
 * used, disclosed, transferred, or copied only in accordance  *
 * with the terms and conditions of that software license      *
 * agreement.                                                  *
 *                                                             *
 * ANSYS, Inc. is a UL registered                              *
 * ISO 9001:2008 company.                                      *
 *                                                             *
 ***************************************************************
 *                                                             *
 * This product is subject to U.S. laws governing export and   *
 * re-export.                                                  *
 *                                                             *
 * For U.S. Government users, except as specifically granted   *
 * by the ANSYS, Inc. software license agreement, the use,     *
 * duplication, or disclosure by the United States Government  *
 * is subject to restrictions stated in the ANSYS, Inc.        *
 * software license agreement and FAR 12.212 (for non-DOD      *
 * licenses).                                                  *
 *                                                             *
 ***************************************************************

 Release 19.2
     
 Point Releases and Patches installed:   
     
 Academic Student Release 19.2   
 FENSAP-ICE Release 19.2 


          *****  ANSYS COMMAND LINE ARGUMENTS  *****
  BATCH MODE REQUESTED (-b)    = NOLIST
  INPUT FILE COPY MODE (-c)    = COPY
  DISTRIBUTED MEMORY PARALLEL REQUESTED
       2 PARALLEL PROCESSES REQUESTED WITH SINGLE THREAD PER PROCESS
    TOTAL OF     2 CORES REQUESTED
  DESIGNXPLORER REQUESTED
  MPI OPTION                   = INTELMPI
  INPUT FILE NAME              = C:\Users\chandler\Documents\analise_harmonica_transportador\_ProjectScratch\Scr1BC0\dummy.dat
  OUTPUT FILE NAME             = C:\Users\chandler\Documents\analise_harmonica_transportador\_ProjectScratch\Scr1BC0\solve.out
  START-UP FILE MODE           = NOREAD
  STOP FILE MODE               = NOREAD

 RELEASE= Release 19.2         BUILD= 19.2      UP20180808   VERSION=WINDOWS x64 
 CURRENT JOBNAME=file0  03:15:44  FEB 04, 2019 CP=      0.109


 PARAMETER _DS_PROGRESS =     999.0000000    

 /INPUT FILE= ds.dat  LINE=       0



 *** NOTE ***                            CP =       0.187   TIME= 03:15:44
 The /CONFIG,NOELDB command is not valid in a Distributed ANSYS          
 solution.  Command is ignored.                                          

 *GET  _WALLSTRT  FROM  ACTI  ITEM=TIME WALL  VALUE=  3.26222222    

 TITLE= 
 DISPOSITIVO--Modal (A5)                                                       


 SET PARAMETER DIMENSIONS ON  _WB_PROJECTSCRATCH_DIR
  TYPE=STRI  DIMENSIONS=      248        1        1

 PARAMETER _WB_PROJECTSCRATCH_DIR(1) = C:\Users\chandler\Documents\analise_harmonica_transportador\_ProjectScratch\Scr1BC0\

 SET PARAMETER DIMENSIONS ON  _WB_SOLVERFILES_DIR
  TYPE=STRI  DIMENSIONS=      248        1        1

 PARAMETER _WB_SOLVERFILES_DIR(1) = C:\Users\chandler\Documents\analise_harmonica_transportador\DISPOSITIVO_files\dp0\SYS\MECH\

 SET PARAMETER DIMENSIONS ON  _WB_USERFILES_DIR
  TYPE=STRI  DIMENSIONS=      248        1        1

 PARAMETER _WB_USERFILES_DIR(1) = C:\Users\chandler\Documents\analise_harmonica_transportador\DISPOSITIVO_files\user_files\
 --- Data in consistent MKS units. See Solving Units in the help system for more

 MKS UNITS SPECIFIED FOR INTERNAL    
  LENGTH        (l)  = METER (M)
  MASS          (M)  = KILOGRAM (KG)
  TIME          (t)  = SECOND (SEC)
  TEMPERATURE   (T)  = CELSIUS (C)
  TOFFSET            = 273.0
  CHARGE        (Q)  = COULOMB
  FORCE         (f)  = NEWTON (N) (KG-M/SEC2)
  HEAT               = JOULE (N-M)

  PRESSURE           = PASCAL (NEWTON/M**2)
  ENERGY        (W)  = JOULE (N-M)
  POWER         (P)  = WATT (N-M/SEC)
  CURRENT       (i)  = AMPERE (COULOMBS/SEC)
  CAPACITANCE   (C)  = FARAD
  INDUCTANCE    (L)  = HENRY
  MAGNETIC FLUX      = WEBER
  RESISTANCE    (R)  = OHM
  ELECTRIC POTENTIAL = VOLT

 INPUT  UNITS ARE ALSO SET TO MKS 

 *** ANSYS - ENGINEERING ANALYSIS SYSTEM  RELEASE Release 19.2     19.2     ***
 DISTRIBUTED ANSYS Academic Teaching Introductory              

 01055371  VERSION=WINDOWS x64   03:15:44  FEB 04, 2019 CP=      0.187

 DISPOSITIVO--Modal (A5)                                                       



          ***** ANSYS ANALYSIS DEFINITION (PREP7) *****
 *********** Nodes for the whole assembly ***********
 *********** Elements for Body 1 "SYS\Pe_a de alum_nio" ***********
 *********** Elements for Body 2 "SYS\Cer_mica1" ***********
 *********** Elements for Body 3 "SYS\Cer_mica2" ***********
 *********** Elements for Body 4 "SYS\Base de alum_nio" ***********
 *********** Elements for Body 5 "SYS\Pe_a de alum_nio" ***********
 *********** Elements for Body 6 "SYS\Cer_mica1" ***********
 *********** Elements for Body 7 "SYS\Cer_mica2" ***********
 *********** Elements for Body 8 "SYS\Base de alum_nio" ***********
 *********** Elements for Body 9 "SYS\Viga de Alum_nio" ***********
 *********** Send User Defined Coordinate System(s) ***********
 *********** Set Reference Temperature ***********
 *********** Send Materials ***********
 *********** Create Contact "Contact Region" ***********
             Real Constant Set For Above Contact Is 11 & 10
 *********** Create Contact "Contact Region 2" ***********
             Real Constant Set For Above Contact Is 13 & 12
 *********** Create Contact "Contact Region 3" ***********
             Real Constant Set For Above Contact Is 15 & 14
 *********** Create Contact "Contact Region 4" ***********
             Real Constant Set For Above Contact Is 17 & 16
 *********** Create Contact "Contact Region 5" ***********
             Real Constant Set For Above Contact Is 19 & 18
 *********** Create Contact "Contact Region 6" ***********
             Real Constant Set For Above Contact Is 21 & 20
 *********** Create Contact "Contact Region 7" ***********
             Real Constant Set For Above Contact Is 23 & 22
 *********** Create Contact "Contact Region 8" ***********
             Real Constant Set For Above Contact Is 25 & 24
 *********** Send Named Selection as Node Component ***********
 *********** Send Named Selection as Node Component ***********
 *********** Send Named Selection as Node Component ***********
 *********** Send Named Selection as Node Component ***********
 *********** Fixed Supports ***********


 ***** ROUTINE COMPLETED *****  CP =         0.250


 --- Number of total nodes = 7940
 --- Number of contact elements = 180
 --- Number of spring elements = 0
 --- Number of bearing elements = 0
 --- Number of solid elements = 3780
 --- Number of condensed parts = 0
 --- Number of total elements = 3960

 *GET  _WALLBSOL  FROM  ACTI  ITEM=TIME WALL  VALUE=  3.26222222    

 *****  ANSYS SOLUTION ROUTINE  *****


 PERFORM A MODAL ANALYSIS
  THIS WILL BE A NEW ANALYSIS


 USE SYM. BLOCK LANCZOS MODE EXTRACTION METHOD
  EXTRACT   14 MODES
  EXTRACT FREQUENCIES IN THE RANGE   20000.     TO   22000.    
  NORMALIZE THE MODE SHAPES TO THE MASS MATRIX

 ERASE THE CURRENT DATABASE OUTPUT CONTROL TABLE.


 WRITE ALL  ITEMS TO THE DATABASE WITH A FREQUENCY OF NONE
   FOR ALL APPLICABLE ENTITIES

 WRITE NSOL ITEMS TO THE DATABASE WITH A FREQUENCY OF ALL 
   FOR ALL APPLICABLE ENTITIES


 EXPAND ALL EXTRACTED MODES
  DO NOT CALCULATE ELEMENT RESULTS

 DO NOT COMBINE ELEMENT SAVE DATA FILES (.esav) AFTER DISTRIBUTED PARALLEL SOLUTION

 DO NOT COMBINE ELEMENT MATRIX FILES (.emat) AFTER DISTRIBUTED PARALLEL SOLUTION

 DO NOT COMBINE ASSEMBLED MATRIX FILES (.full) AFTER DISTRIBUTED PARALLEL SOLUTION

 SPECIFIED CONSTRAINT VOLT FOR PICKED NODES 
 REAL=  700.000000       IMAG=  0.00000000    

 SPECIFIED CONSTRAINT VOLT FOR PICKED NODES 
 REAL=  0.00000000       IMAG=  0.00000000    

 *GET  ANSINTER_  FROM  ACTI  ITEM=INT        VALUE=  0.00000000    

 *IF  ANSINTER_                         ( =   0.00000     )  NE  
      0                                 ( =   0.00000     )  THEN    

 *ENDIF

 *** NOTE ***                            CP =       0.250   TIME= 03:15:44
 The automatic domain decomposition logic has selected the MESH domain   
 decomposition method with 2 processes per solution.                     

 *****  ANSYS SOLVE    COMMAND  *****

 *** WARNING ***                         CP =       0.250   TIME= 03:15:44
 Element shape checking is currently inactive.  Issue SHPP,ON or         
 SHPP,WARN to reactivate, if desired.                                    

 *** NOTE ***                            CP =       0.250   TIME= 03:15:44
 The model data was checked and warning messages were found.             
  Please review output or errors file (                                  
 C:\Users\chandler\Documents\analise_harmonica_transportador\_ProjectScr 
 ratch\Scr1BC0\file0.err ) for these warning messages.                   

 *** SELECTION OF ELEMENT TECHNOLOGIES FOR APPLICABLE ELEMENTS ***
      --- GIVE SUGGESTIONS AND RESET THE KEY OPTIONS ---

 ELEMENT TYPE    1 IS SOLID187. IT IS NOT ASSOCIATED WITH FULLY INCOMPRESSIBLE
 HYPERELASTIC MATERIALS. NO SUGGESTION IS AVAILABLE AND NO RESETTING IS NEEDED.

 ELEMENT TYPE    3 IS SOLID186. KEYOPT(2)=0 IS SUGGESTED AND HAS BEEN RESET.
  KEYOPT(1-12)=    0    0    0    0    0    0    0    0    0    0    0    0

 ELEMENT TYPE    4 IS SOLID186. KEYOPT(2)=0 IS SUGGESTED AND HAS BEEN RESET.
  KEYOPT(1-12)=    0    0    0    0    0    0    0    0    0    0    0    0

 ELEMENT TYPE    5 IS SOLID187. IT IS NOT ASSOCIATED WITH FULLY INCOMPRESSIBLE
 HYPERELASTIC MATERIALS. NO SUGGESTION IS AVAILABLE AND NO RESETTING IS NEEDED.

 ELEMENT TYPE    6 IS SOLID186. KEYOPT(2)=0 IS SUGGESTED AND HAS BEEN RESET.
  KEYOPT(1-12)=    0    0    0    0    0    0    0    0    0    0    0    0

 ELEMENT TYPE    7 IS SOLID186. KEYOPT(2)=0 IS SUGGESTED AND HAS BEEN RESET.
  KEYOPT(1-12)=    0    0    0    0    0    0    0    0    0    0    0    0

 ELEMENT TYPE    8 IS SOLID186. KEYOPT(2)=0 IS SUGGESTED AND HAS BEEN RESET.
  KEYOPT(1-12)=    0    0    0    0    0    0    0    0    0    0    0    0

 ELEMENT TYPE    9 IS SOLID186. KEYOPT(2)=0 IS SUGGESTED AND HAS BEEN RESET.
  KEYOPT(1-12)=    0    0    0    0    0    0    0    0    0    0    0    0



 *** ANSYS - ENGINEERING ANALYSIS SYSTEM  RELEASE Release 19.2     19.2     ***
 DISTRIBUTED ANSYS Academic Teaching Introductory              

 01055371  VERSION=WINDOWS x64   03:15:44  FEB 04, 2019 CP=      0.250

 DISPOSITIVO--Modal (A5)                                                       



                       S O L U T I O N   O P T I O N S

   PROBLEM DIMENSIONALITY. . . . . . . . . . . . .3-D                  
   DEGREES OF FREEDOM. . . . . . UX   UY   UZ   VOLT
   ANALYSIS TYPE . . . . . . . . . . . . . . . . .MODAL                
      EXTRACTION METHOD. . . . . . . . . . . . . .BLOCK LANCZOS
   OFFSET TEMPERATURE FROM ABSOLUTE ZERO . . . . .  273.15    
   NUMBER OF MODES TO EXTRACT. . . . . . . . . . .    14
   MODAL EXTRACTION RANGE. . . . . . . . . . . . .  20000.     TO   22000.    
   GLOBALLY ASSEMBLED MATRIX . . . . . . . . . . .SYMMETRIC  
   NUMBER OF MODES TO EXPAND . . . . . . . . . . .ALL
   ELEMENT RESULTS CALCULATION . . . . . . . . . .OFF

 *** NOTE ***                            CP =       0.250   TIME= 03:15:44
 Poisson's ratio PR input has been converted to NU input.                

 *** NOTE ***                            CP =       0.250   TIME= 03:15:44
 The structural-electrostatic analysis with KEYOPT(1) = 1001 of element  
 SOLID226 will be piezoelectric.                                         

 *** NOTE ***                            CP =       0.250   TIME= 03:15:44
 The conditions for direct assembly have been met.  No .emat or .erot    
 files will be produced.                                                 

 *** WARNING ***                         CP =       0.281   TIME= 03:15:44
 Contact element 3795 is missing DOF VOLT (and possibly others) of       
 underlying base element 84.  Similar mismatches may exist elsewhere,    
 but checking for this is discontinued.                                  

 *** NOTE ***                            CP =       0.281   TIME= 03:15:44
 Symmetric Deformable- deformable contact pair identified by real        
 constant set 10 and contact element type 10 has been set up.  The       
 companion pair has real constant set ID 11.  Both pairs should have     
 the same behavior.                                                      
 ANSYS will deactivate the current pair and keep its companion pair,     
 resulting in asymmetric contact.                                        
 Linear contact is defined
 Contact algorithm: Augmented Lagrange method
 Contact detection at: Gauss integration point
 Contact stiffness factor FKN                  10.000    
 The resulting initial contact stiffness      0.35921E+16
 Default penetration tolerance factor FTOLN   0.10000    
 The resulting penetration tolerance          0.63803E-03
 Default opening contact stiffness OPSF will be used.
 Default tangent stiffness factor FKT          1.0000    
 Use constant contact stiffness
 Default Max. friction stress TAUMAX          0.10000E+21
 Average contact surface length               0.94135E-02
 Average contact pair depth                   0.63803E-02
 Default pinball region factor PINB           0.25000    
 The resulting pinball region                 0.15951E-02
 Initial penetration/gap is excluded.
 Bonded contact (always) is defined.

 *** NOTE ***                            CP =       0.281   TIME= 03:15:44
 Max.  Initial penetration 5.551115123E-17 was detected between contact  
 element 3788 and target element 3804.                                   
 ****************************************
  

 *** NOTE ***                            CP =       0.281   TIME= 03:15:44
 Symmetric Deformable- deformable contact pair identified by real        
 constant set 11 and contact element type 10 has been set up.  The       
 companion pair has real constant set ID 10.  Both pairs should have     
 the same behavior.                                                      
 ANSYS will keep the current pair and deactivate its companion pair,     
 resulting in asymmetric contact.                                        
 Linear contact is defined
 Contact algorithm: Augmented Lagrange method
 Contact detection at: Gauss integration point
 Contact stiffness factor FKN                  10.000    
 The resulting initial contact stiffness      0.35921E+16
 Default penetration tolerance factor FTOLN   0.10000    
 The resulting penetration tolerance          0.63500E-03
 Default opening contact stiffness OPSF will be used.
 Default tangent stiffness factor FKT          1.0000    
 Use constant contact stiffness
 Default Max. friction stress TAUMAX          0.10000E+21
 Average contact surface length               0.92448E-02
 Average contact pair depth                   0.63500E-02
 Default pinball region factor PINB           0.25000    
 The resulting pinball region                 0.15875E-02
 Initial penetration/gap is excluded.
 Bonded contact (always) is defined.

 *** NOTE ***                            CP =       0.281   TIME= 03:15:44
 Max.  Initial penetration 5.551115123E-17 was detected between contact  
 element 3795 and target element 3782.                                   
 ****************************************
  

 *** NOTE ***                            CP =       0.281   TIME= 03:15:44
 Symmetric Deformable- deformable contact pair identified by real        
 constant set 12 and contact element type 12 has been set up.  The       
 companion pair has real constant set ID 13.  Both pairs should have     
 the same behavior.                                                      
 ANSYS will keep the current pair and deactivate its companion pair,     
 resulting in asymmetric contact.                                        
 Linear contact is defined
 Contact algorithm: Augmented Lagrange method
 Contact detection at: Gauss integration point
 Contact stiffness factor FKN                  10.000    
 The resulting initial contact stiffness      0.53031E+16
 Default penetration tolerance factor FTOLN   0.10000    
 The resulting penetration tolerance          0.75428E-03
 Default opening contact stiffness OPSF will be used.
 Default tangent stiffness factor FKT          1.0000    
 Use constant contact stiffness
 Default Max. friction stress TAUMAX          0.10000E+21
 Average contact surface length               0.87243E-02
 Average contact pair depth                   0.75428E-02
 Default pinball region factor PINB           0.25000    
 The resulting pinball region                 0.18857E-02
 Initial penetration/gap is excluded.
 Bonded contact (always) is defined.

 *** NOTE ***                            CP =       0.281   TIME= 03:15:44
 Max.  Initial penetration 2.168404345E-19 was detected between contact  
 element 3818 and target element 3829.                                   
 ****************************************
  

 *** NOTE ***                            CP =       0.281   TIME= 03:15:44
 Symmetric Deformable- deformable contact pair identified by real        
 constant set 13 and contact element type 12 has been set up.  The       
 companion pair has real constant set ID 12.  Both pairs should have     
 the same behavior.                                                      
 ANSYS will deactivate the current pair and keep its companion pair,     
 resulting in asymmetric contact.                                        
 Linear contact is defined
 Contact algorithm: Augmented Lagrange method
 Contact detection at: Gauss integration point
 Contact stiffness factor FKN                  10.000    
 The resulting initial contact stiffness      0.53031E+16
 Default penetration tolerance factor FTOLN   0.10000    
 The resulting penetration tolerance          0.55995E-03
 Default opening contact stiffness OPSF will be used.
 Default tangent stiffness factor FKT          1.0000    
 Use constant contact stiffness
 Default Max. friction stress TAUMAX          0.10000E+21
 Average contact surface length               0.18665E-01
 Average contact pair depth                   0.55995E-02
 Default pinball region factor PINB           0.25000    
 The resulting pinball region                 0.13999E-02
 Initial penetration/gap is excluded.
 Bonded contact (always) is defined.

 *** NOTE ***                            CP =       0.281   TIME= 03:15:44
 Max.  Initial penetration 0 was detected between contact element 3825   
 and target element 3807.                                                
 ****************************************
  

 *** NOTE ***                            CP =       0.281   TIME= 03:15:44
 Symmetric Deformable- deformable contact pair identified by real        
 constant set 14 and contact element type 14 has been set up.  The       
 companion pair has real constant set ID 15.  Both pairs should have     
 the same behavior.                                                      
 ANSYS will deactivate the current pair and keep its companion pair,     
 resulting in asymmetric contact.                                        
 Linear contact is defined
 Contact algorithm: Augmented Lagrange method
 Contact detection at: Gauss integration point
 Contact stiffness factor FKN                  10.000    
 The resulting initial contact stiffness      0.35921E+16
 Default penetration tolerance factor FTOLN   0.10000    
 The resulting penetration tolerance          0.63500E-03
 Default opening contact stiffness OPSF will be used.
 Default tangent stiffness factor FKT          1.0000    
 Use constant contact stiffness
 Default Max. friction stress TAUMAX          0.10000E+21
 Average contact surface length               0.10026E-01
 Average contact pair depth                   0.63500E-02
 Default pinball region factor PINB           0.25000    
 The resulting pinball region                 0.15875E-02
 Initial penetration/gap is excluded.
 Bonded contact (always) is defined.

 *** NOTE ***                            CP =       0.281   TIME= 03:15:44
 Max.  Initial penetration 5.551115123E-17 was detected between contact  
 element 3836 and target element 3846.                                   
 ****************************************
  

 *** NOTE ***                            CP =       0.281   TIME= 03:15:44
 Symmetric Deformable- deformable contact pair identified by real        
 constant set 15 and contact element type 14 has been set up.  The       
 companion pair has real constant set ID 14.  Both pairs should have     
 the same behavior.                                                      
 ANSYS will keep the current pair and deactivate its companion pair,     
 resulting in asymmetric contact.                                        
 Linear contact is defined
 Contact algorithm: Augmented Lagrange method
 Contact detection at: Gauss integration point
 Contact stiffness factor FKN                  10.000    
 The resulting initial contact stiffness      0.35921E+16
 Default penetration tolerance factor FTOLN   0.10000    
 The resulting penetration tolerance          0.63500E-03
 Default opening contact stiffness OPSF will be used.
 Default tangent stiffness factor FKT          1.0000    
 Use constant contact stiffness
 Default Max. friction stress TAUMAX          0.10000E+21
 Average contact surface length               0.92448E-02
 Average contact pair depth                   0.63500E-02
 Default pinball region factor PINB           0.25000    
 The resulting pinball region                 0.15875E-02
 Initial penetration/gap is excluded.
 Bonded contact (always) is defined.

 *** NOTE ***                            CP =       0.281   TIME= 03:15:44
 Max.  Initial penetration 5.551115123E-17 was detected between contact  
 element 3843 and target element 3833.                                   
 ****************************************
  

 *** NOTE ***                            CP =       0.281   TIME= 03:15:44
 Symmetric Deformable- deformable contact pair identified by real        
 constant set 16 and contact element type 16 has been set up.  The       
 companion pair has real constant set ID 17.  Both pairs should have     
 the same behavior.                                                      
 ANSYS will keep the current pair and deactivate its companion pair,     
 resulting in asymmetric contact.                                        
 Linear contact is defined
 Contact algorithm: Augmented Lagrange method
 Contact detection at: Gauss integration point
 Contact stiffness factor FKN                  10.000    
 The resulting initial contact stiffness      0.35921E+16
 Default penetration tolerance factor FTOLN   0.10000    
 The resulting penetration tolerance          0.63500E-03
 Default opening contact stiffness OPSF will be used.
 Default tangent stiffness factor FKT          1.0000    
 Use constant contact stiffness
 Default Max. friction stress TAUMAX          0.10000E+21
 Average contact surface length               0.10026E-01
 Average contact pair depth                   0.63500E-02
 Default pinball region factor PINB           0.25000    
 The resulting pinball region                 0.15875E-02
 Initial penetration/gap is excluded.
 Bonded contact (always) is defined.

 *** NOTE ***                            CP =       0.281   TIME= 03:15:44
 Max.  Initial penetration 1.110223025E-16 was detected between contact  
 element 3857 and target element 3867.                                   
 ****************************************
  

 *** NOTE ***                            CP =       0.281   TIME= 03:15:44
 Symmetric Deformable- deformable contact pair identified by real        
 constant set 17 and contact element type 16 has been set up.  The       
 companion pair has real constant set ID 16.  Both pairs should have     
 the same behavior.                                                      
 ANSYS will deactivate the current pair and keep its companion pair,     
 resulting in asymmetric contact.                                        
 Linear contact is defined
 Contact algorithm: Augmented Lagrange method
 Contact detection at: Gauss integration point
 Contact stiffness factor FKN                  10.000    
 The resulting initial contact stiffness      0.35921E+16
 Default penetration tolerance factor FTOLN   0.10000    
 The resulting penetration tolerance          0.71429E-03
 Default opening contact stiffness OPSF will be used.
 Default tangent stiffness factor FKT          1.0000    
 Use constant contact stiffness
 Default Max. friction stress TAUMAX          0.10000E+21
 Average contact surface length               0.92448E-02
 Average contact pair depth                   0.71429E-02
 Default pinball region factor PINB           0.25000    
 The resulting pinball region                 0.17857E-02
 Initial penetration/gap is excluded.
 Bonded contact (always) is defined.

 *** NOTE ***                            CP =       0.281   TIME= 03:15:44
 Max.  Initial penetration 5.551115123E-17 was detected between contact  
 element 3863 and target element 3853.                                   
 ****************************************
  

 *** NOTE ***                            CP =       0.281   TIME= 03:15:44
 Symmetric Deformable- deformable contact pair identified by real        
 constant set 18 and contact element type 18 has been set up.  The       
 companion pair has real constant set ID 19.  Both pairs should have     
 the same behavior.                                                      
 ANSYS will deactivate the current pair and keep its companion pair,     
 resulting in asymmetric contact.                                        
 Linear contact is defined
 Contact algorithm: Augmented Lagrange method
 Contact detection at: Gauss integration point
 Contact stiffness factor FKN                  10.000    
 The resulting initial contact stiffness      0.35921E+16
 Default penetration tolerance factor FTOLN   0.10000    
 The resulting penetration tolerance          0.63803E-03
 Default opening contact stiffness OPSF will be used.
 Default tangent stiffness factor FKT          1.0000    
 Use constant contact stiffness
 Default Max. friction stress TAUMAX          0.10000E+21
 Average contact surface length               0.94135E-02
 Average contact pair depth                   0.63803E-02
 Default pinball region factor PINB           0.25000    
 The resulting pinball region                 0.15951E-02
 Initial penetration/gap is excluded.
 Bonded contact (always) is defined.

 *** NOTE ***                            CP =       0.281   TIME= 03:15:44
 Max.  Initial penetration 5.551115123E-17 was detected between contact  
 element 3878 and target element 3894.                                   
 ****************************************
  

 *** NOTE ***                            CP =       0.281   TIME= 03:15:44
 Symmetric Deformable- deformable contact pair identified by real        
 constant set 19 and contact element type 18 has been set up.  The       
 companion pair has real constant set ID 18.  Both pairs should have     
 the same behavior.                                                      
 ANSYS will keep the current pair and deactivate its companion pair,     
 resulting in asymmetric contact.                                        
 Linear contact is defined
 Contact algorithm: Augmented Lagrange method
 Contact detection at: Gauss integration point
 Contact stiffness factor FKN                  10.000    
 The resulting initial contact stiffness      0.35921E+16
 Default penetration tolerance factor FTOLN   0.10000    
 The resulting penetration tolerance          0.63500E-03
 Default opening contact stiffness OPSF will be used.
 Default tangent stiffness factor FKT          1.0000    
 Use constant contact stiffness
 Default Max. friction stress TAUMAX          0.10000E+21
 Average contact surface length               0.92448E-02
 Average contact pair depth                   0.63500E-02
 Default pinball region factor PINB           0.25000    
 The resulting pinball region                 0.15875E-02
 Initial penetration/gap is excluded.
 Bonded contact (always) is defined.

 *** NOTE ***                            CP =       0.281   TIME= 03:15:44
 Max.  Initial penetration 5.551115123E-17 was detected between contact  
 element 3885 and target element 3872.                                   
 ****************************************
  

 *** NOTE ***                            CP =       0.281   TIME= 03:15:44
 Symmetric Deformable- deformable contact pair identified by real        
 constant set 20 and contact element type 20 has been set up.  The       
 companion pair has real constant set ID 21.  Both pairs should have     
 the same behavior.                                                      
 ANSYS will keep the current pair and deactivate its companion pair,     
 resulting in asymmetric contact.                                        
 Linear contact is defined
 Contact algorithm: Augmented Lagrange method
 Contact detection at: Gauss integration point
 Contact stiffness factor FKN                  10.000    
 The resulting initial contact stiffness      0.53379E+16
 Default penetration tolerance factor FTOLN   0.10000    
 The resulting penetration tolerance          0.74937E-03
 Default opening contact stiffness OPSF will be used.
 Default tangent stiffness factor FKT          1.0000    
 Use constant contact stiffness
 Default Max. friction stress TAUMAX          0.10000E+21
 Average contact surface length               0.87243E-02
 Average contact pair depth                   0.74937E-02
 Default pinball region factor PINB           0.25000    
 The resulting pinball region                 0.18734E-02
 Initial penetration/gap is excluded.
 Bonded contact (always) is defined.

 *** NOTE ***                            CP =       0.281   TIME= 03:15:44
 Max.  Initial penetration 2.168404345E-19 was detected between contact  
 element 3906 and target element 3919.                                   
 ****************************************
  

 *** NOTE ***                            CP =       0.281   TIME= 03:15:44
 Symmetric Deformable- deformable contact pair identified by real        
 constant set 21 and contact element type 20 has been set up.  The       
 companion pair has real constant set ID 20.  Both pairs should have     
 the same behavior.                                                      
 ANSYS will deactivate the current pair and keep its companion pair,     
 resulting in asymmetric contact.                                        
 Linear contact is defined
 Contact algorithm: Augmented Lagrange method
 Contact detection at: Gauss integration point
 Contact stiffness factor FKN                  10.000    
 The resulting initial contact stiffness      0.53379E+16
 Default penetration tolerance factor FTOLN   0.10000    
 The resulting penetration tolerance          0.55995E-03
 Default opening contact stiffness OPSF will be used.
 Default tangent stiffness factor FKT          1.0000    
 Use constant contact stiffness
 Default Max. friction stress TAUMAX          0.10000E+21
 Average contact surface length               0.18665E-01
 Average contact pair depth                   0.55995E-02
 Default pinball region factor PINB           0.25000    
 The resulting pinball region                 0.13999E-02
 Initial penetration/gap is excluded.
 Bonded contact (always) is defined.

 *** NOTE ***                            CP =       0.281   TIME= 03:15:44
 Max.  Initial penetration 0 was detected between contact element 3915   
 and target element 3903.                                                
 ****************************************
  

 *** NOTE ***                            CP =       0.281   TIME= 03:15:44
 Symmetric Deformable- deformable contact pair identified by real        
 constant set 22 and contact element type 22 has been set up.  The       
 companion pair has real constant set ID 23.  Both pairs should have     
 the same behavior.                                                      
 ANSYS will deactivate the current pair and keep its companion pair,     
 resulting in asymmetric contact.                                        
 Linear contact is defined
 Contact algorithm: Augmented Lagrange method
 Contact detection at: Gauss integration point
 Contact stiffness factor FKN                  10.000    
 The resulting initial contact stiffness      0.35921E+16
 Default penetration tolerance factor FTOLN   0.10000    
 The resulting penetration tolerance          0.63500E-03
 Default opening contact stiffness OPSF will be used.
 Default tangent stiffness factor FKT          1.0000    
 Use constant contact stiffness
 Default Max. friction stress TAUMAX          0.10000E+21
 Average contact surface length               0.10026E-01
 Average contact pair depth                   0.63500E-02
 Default pinball region factor PINB           0.25000    
 The resulting pinball region                 0.15875E-02
 Initial penetration/gap is excluded.
 Bonded contact (always) is defined.

 *** NOTE ***                            CP =       0.281   TIME= 03:15:44
 Max.  Initial penetration 5.551115123E-17 was detected between contact  
 element 3927 and target element 3937.                                   
 ****************************************
  

 *** NOTE ***                            CP =       0.281   TIME= 03:15:44
 Symmetric Deformable- deformable contact pair identified by real        
 constant set 23 and contact element type 22 has been set up.  The       
 companion pair has real constant set ID 22.  Both pairs should have     
 the same behavior.                                                      
 ANSYS will keep the current pair and deactivate its companion pair,     
 resulting in asymmetric contact.                                        
 Linear contact is defined
 Contact algorithm: Augmented Lagrange method
 Contact detection at: Gauss integration point
 Contact stiffness factor FKN                  10.000    
 The resulting initial contact stiffness      0.35921E+16
 Default penetration tolerance factor FTOLN   0.10000    
 The resulting penetration tolerance          0.63500E-03
 Default opening contact stiffness OPSF will be used.
 Default tangent stiffness factor FKT          1.0000    
 Use constant contact stiffness
 Default Max. friction stress TAUMAX          0.10000E+21
 Average contact surface length               0.92448E-02
 Average contact pair depth                   0.63500E-02
 Default pinball region factor PINB           0.25000    
 The resulting pinball region                 0.15875E-02
 Initial penetration/gap is excluded.
 Bonded contact (always) is defined.

 *** NOTE ***                            CP =       0.281   TIME= 03:15:44
 Max.  Initial penetration 5.551115123E-17 was detected between contact  
 element 3933 and target element 3923.                                   
 ****************************************
  

 *** NOTE ***                            CP =       0.281   TIME= 03:15:44
 Symmetric Deformable- deformable contact pair identified by real        
 constant set 24 and contact element type 24 has been set up.  The       
 companion pair has real constant set ID 25.  Both pairs should have     
 the same behavior.                                                      
 ANSYS will keep the current pair and deactivate its companion pair,     
 resulting in asymmetric contact.                                        
 Linear contact is defined
 Contact algorithm: Augmented Lagrange method
 Contact detection at: Gauss integration point
 Contact stiffness factor FKN                  10.000    
 The resulting initial contact stiffness      0.35921E+16
 Default penetration tolerance factor FTOLN   0.10000    
 The resulting penetration tolerance          0.63500E-03
 Default opening contact stiffness OPSF will be used.
 Default tangent stiffness factor FKT          1.0000    
 Use constant contact stiffness
 Default Max. friction stress TAUMAX          0.10000E+21
 Average contact surface length               0.10026E-01
 Average contact pair depth                   0.63500E-02
 Default pinball region factor PINB           0.25000    
 The resulting pinball region                 0.15875E-02
 Initial penetration/gap is excluded.
 Bonded contact (always) is defined.

 *** NOTE ***                            CP =       0.281   TIME= 03:15:44
 Max.  Initial penetration 5.551115123E-17 was detected between contact  
 element 3948 and target element 3958.                                   
 ****************************************
  

 *** NOTE ***                            CP =       0.281   TIME= 03:15:44
 Symmetric Deformable- deformable contact pair identified by real        
 constant set 25 and contact element type 24 has been set up.  The       
 companion pair has real constant set ID 24.  Both pairs should have     
 the same behavior.                                                      
 ANSYS will deactivate the current pair and keep its companion pair,     
 resulting in asymmetric contact.                                        
 Linear contact is defined
 Contact algorithm: Augmented Lagrange method
 Contact detection at: Gauss integration point
 Contact stiffness factor FKN                  10.000    
 The resulting initial contact stiffness      0.35921E+16
 Default penetration tolerance factor FTOLN   0.10000    
 The resulting penetration tolerance          0.71429E-03
 Default opening contact stiffness OPSF will be used.
 Default tangent stiffness factor FKT          1.0000    
 Use constant contact stiffness
 Default Max. friction stress TAUMAX          0.10000E+21
 Average contact surface length               0.92448E-02
 Average contact pair depth                   0.71429E-02
 Default pinball region factor PINB           0.25000    
 The resulting pinball region                 0.17857E-02
 Initial penetration/gap is excluded.
 Bonded contact (always) is defined.

 *** NOTE ***                            CP =       0.281   TIME= 03:15:44
 Max.  Initial penetration 1.110223025E-16 was detected between contact  
 element 3955 and target element 3945.                                   
 ****************************************
  
  
  

  
  
     D I S T R I B U T E D   D O M A I N   D E C O M P O S E R
  
  ...Number of elements: 3960
  ...Number of nodes:    7940
  ...Decompose to 2 CPU domains
  ...Element load balance ratio =     1.001


                      L O A D   S T E P   O P T I O N S

   LOAD STEP NUMBER. . . . . . . . . . . . . . . .     1
   THERMAL STRAINS INCLUDED IN THE LOAD VECTOR . .   YES
   PRINT OUTPUT CONTROLS . . . . . . . . . . . . .NO PRINTOUT
   DATABASE OUTPUT CONTROLS
      ITEM     FREQUENCY   COMPONENT
       ALL       NONE               
      NSOL        ALL               


 *** NOTE ***                            CP =       0.343   TIME= 03:15:44
 Symmetric Deformable- deformable contact pair identified by real        
 constant set 10 and contact element type 10 has been set up.  The       
 companion pair has real constant set ID 11.  Both pairs should have     
 the same behavior.                                                      
 ANSYS will deactivate the current pair and keep its companion pair,     
 resulting in asymmetric contact.                                        
 Linear contact is defined
 Contact algorithm: Augmented Lagrange method
 Contact detection at: Gauss integration point
 Contact stiffness factor FKN                  10.000    
 The resulting initial contact stiffness      0.35921E+16
 Default penetration tolerance factor FTOLN   0.10000    
 The resulting penetration tolerance          0.63803E-03
 Default opening contact stiffness OPSF will be used.
 Default tangent stiffness factor FKT          1.0000    
 Use constant contact stiffness
 Default Max. friction stress TAUMAX          0.10000E+21
 Average contact surface length               0.94135E-02
 Average contact pair depth                   0.63803E-02
 Default pinball region factor PINB           0.25000    
 The resulting pinball region                 0.15951E-02
 Initial penetration/gap is excluded.
 Bonded contact (always) is defined.

 *** NOTE ***                            CP =       0.343   TIME= 03:15:44
 Max.  Initial penetration 5.551115123E-17 was detected between contact  
 element 3788 and target element 3804.                                   
 ****************************************
  

 *** NOTE ***                            CP =       0.343   TIME= 03:15:44
 Symmetric Deformable- deformable contact pair identified by real        
 constant set 11 and contact element type 10 has been set up.  The       
 companion pair has real constant set ID 10.  Both pairs should have     
 the same behavior.                                                      
 ANSYS will keep the current pair and deactivate its companion pair,     
 resulting in asymmetric contact.                                        
 Linear contact is defined
 Contact algorithm: Augmented Lagrange method
 Contact detection at: Gauss integration point
 Contact stiffness factor FKN                  10.000    
 The resulting initial contact stiffness      0.35921E+16
 Default penetration tolerance factor FTOLN   0.10000    
 The resulting penetration tolerance          0.63500E-03
 Default opening contact stiffness OPSF will be used.
 Default tangent stiffness factor FKT          1.0000    
 Use constant contact stiffness
 Default Max. friction stress TAUMAX          0.10000E+21
 Average contact surface length               0.92448E-02
 Average contact pair depth                   0.63500E-02
 Default pinball region factor PINB           0.25000    
 The resulting pinball region                 0.15875E-02
 Initial penetration/gap is excluded.
 Bonded contact (always) is defined.

 *** NOTE ***                            CP =       0.343   TIME= 03:15:44
 Max.  Initial penetration 5.551115123E-17 was detected between contact  
 element 3795 and target element 3782.                                   
 ****************************************
  

 *** NOTE ***                            CP =       0.343   TIME= 03:15:44
 Symmetric Deformable- deformable contact pair identified by real        
 constant set 16 and contact element type 16 has been set up.  The       
 companion pair has real constant set ID 17.  Both pairs should have     
 the same behavior.                                                      
 ANSYS will keep the current pair and deactivate its companion pair,     
 resulting in asymmetric contact.                                        
 Linear contact is defined
 Contact algorithm: Augmented Lagrange method
 Contact detection at: Gauss integration point
 Contact stiffness factor FKN                  10.000    
 The resulting initial contact stiffness      0.35921E+16
 Default penetration tolerance factor FTOLN   0.10000    
 The resulting penetration tolerance          0.63500E-03
 Default opening contact stiffness OPSF will be used.
 Default tangent stiffness factor FKT          1.0000    
 Use constant contact stiffness
 Default Max. friction stress TAUMAX          0.10000E+21
 Average contact surface length               0.10026E-01
 Average contact pair depth                   0.63500E-02
 Default pinball region factor PINB           0.25000    
 The resulting pinball region                 0.15875E-02
 Initial penetration/gap is excluded.
 Bonded contact (always) is defined.

 *** NOTE ***                            CP =       0.343   TIME= 03:15:44
 Max.  Initial penetration 1.110223025E-16 was detected between contact  
 element 3857 and target element 3867.                                   
 ****************************************
  

 *** NOTE ***                            CP =       0.343   TIME= 03:15:44
 Symmetric Deformable- deformable contact pair identified by real        
 constant set 17 and contact element type 16 has been set up.  The       
 companion pair has real constant set ID 16.  Both pairs should have     
 the same behavior.                                                      
 ANSYS will deactivate the current pair and keep its companion pair,     
 resulting in asymmetric contact.                                        
 Linear contact is defined
 Contact algorithm: Augmented Lagrange method
 Contact detection at: Gauss integration point
 Contact stiffness factor FKN                  10.000    
 The resulting initial contact stiffness      0.35921E+16
 Default penetration tolerance factor FTOLN   0.10000    
 The resulting penetration tolerance          0.71429E-03
 Default opening contact stiffness OPSF will be used.
 Default tangent stiffness factor FKT          1.0000    
 Use constant contact stiffness
 Default Max. friction stress TAUMAX          0.10000E+21
 Average contact surface length               0.92448E-02
 Average contact pair depth                   0.71429E-02
 Default pinball region factor PINB           0.25000    
 The resulting pinball region                 0.17857E-02
 Initial penetration/gap is excluded.
 Bonded contact (always) is defined.

 *** NOTE ***                            CP =       0.343   TIME= 03:15:44
 Max.  Initial penetration 5.551115123E-17 was detected between contact  
 element 3863 and target element 3853.                                   
 ****************************************
  

 *** NOTE ***                            CP =       0.343   TIME= 03:15:44
 Symmetric Deformable- deformable contact pair identified by real        
 constant set 18 and contact element type 18 has been set up.  The       
 companion pair has real constant set ID 19.  Both pairs should have     
 the same behavior.                                                      
 ANSYS will deactivate the current pair and keep its companion pair,     
 resulting in asymmetric contact.                                        
 Linear contact is defined
 Contact algorithm: Augmented Lagrange method
 Contact detection at: Gauss integration point
 Contact stiffness factor FKN                  10.000    
 The resulting initial contact stiffness      0.35921E+16
 Default penetration tolerance factor FTOLN   0.10000    
 The resulting penetration tolerance          0.63803E-03
 Default opening contact stiffness OPSF will be used.
 Default tangent stiffness factor FKT          1.0000    
 Use constant contact stiffness
 Default Max. friction stress TAUMAX          0.10000E+21
 Average contact surface length               0.94135E-02
 Average contact pair depth                   0.63803E-02
 Default pinball region factor PINB           0.25000    
 The resulting pinball region                 0.15951E-02
 Initial penetration/gap is excluded.
 Bonded contact (always) is defined.

 *** NOTE ***                            CP =       0.343   TIME= 03:15:44
 Max.  Initial penetration 5.551115123E-17 was detected between contact  
 element 3878 and target element 3894.                                   
 ****************************************
  

 *** NOTE ***                            CP =       0.343   TIME= 03:15:44
 Symmetric Deformable- deformable contact pair identified by real        
 constant set 19 and contact element type 18 has been set up.  The       
 companion pair has real constant set ID 18.  Both pairs should have     
 the same behavior.                                                      
 ANSYS will keep the current pair and deactivate its companion pair,     
 resulting in asymmetric contact.                                        
 Linear contact is defined
 Contact algorithm: Augmented Lagrange method
 Contact detection at: Gauss integration point
 Contact stiffness factor FKN                  10.000    
 The resulting initial contact stiffness      0.35921E+16
 Default penetration tolerance factor FTOLN   0.10000    
 The resulting penetration tolerance          0.63500E-03
 Default opening contact stiffness OPSF will be used.
 Default tangent stiffness factor FKT          1.0000    
 Use constant contact stiffness
 Default Max. friction stress TAUMAX          0.10000E+21
 Average contact surface length               0.92448E-02
 Average contact pair depth                   0.63500E-02
 Default pinball region factor PINB           0.25000    
 The resulting pinball region                 0.15875E-02
 Initial penetration/gap is excluded.
 Bonded contact (always) is defined.

 *** NOTE ***                            CP =       0.343   TIME= 03:15:44
 Max.  Initial penetration 5.551115123E-17 was detected between contact  
 element 3885 and target element 3872.                                   
 ****************************************
  

 *** NOTE ***                            CP =       0.343   TIME= 03:15:44
 Symmetric Deformable- deformable contact pair identified by real        
 constant set 24 and contact element type 24 has been set up.  The       
 companion pair has real constant set ID 25.  Both pairs should have     
 the same behavior.                                                      
 ANSYS will keep the current pair and deactivate its companion pair,     
 resulting in asymmetric contact.                                        
 Linear contact is defined
 Contact algorithm: Augmented Lagrange method
 Contact detection at: Gauss integration point
 Contact stiffness factor FKN                  10.000    
 The resulting initial contact stiffness      0.35921E+16
 Default penetration tolerance factor FTOLN   0.10000    
 The resulting penetration tolerance          0.63500E-03
 Default opening contact stiffness OPSF will be used.
 Default tangent stiffness factor FKT          1.0000    
 Use constant contact stiffness
 Default Max. friction stress TAUMAX          0.10000E+21
 Average contact surface length               0.10026E-01
 Average contact pair depth                   0.63500E-02
 Default pinball region factor PINB           0.25000    
 The resulting pinball region                 0.15875E-02
 Initial penetration/gap is excluded.
 Bonded contact (always) is defined.

 *** NOTE ***                            CP =       0.343   TIME= 03:15:44
 Max.  Initial penetration 5.551115123E-17 was detected between contact  
 element 3948 and target element 3958.                                   
 ****************************************
  

 *** NOTE ***                            CP =       0.343   TIME= 03:15:44
 Symmetric Deformable- deformable contact pair identified by real        
 constant set 25 and contact element type 24 has been set up.  The       
 companion pair has real constant set ID 24.  Both pairs should have     
 the same behavior.                                                      
 ANSYS will deactivate the current pair and keep its companion pair,     
 resulting in asymmetric contact.                                        
 Linear contact is defined
 Contact algorithm: Augmented Lagrange method
 Contact detection at: Gauss integration point
 Contact stiffness factor FKN                  10.000    
 The resulting initial contact stiffness      0.35921E+16
 Default penetration tolerance factor FTOLN   0.10000    
 The resulting penetration tolerance          0.71429E-03
 Default opening contact stiffness OPSF will be used.
 Default tangent stiffness factor FKT          1.0000    
 Use constant contact stiffness
 Default Max. friction stress TAUMAX          0.10000E+21
 Average contact surface length               0.92448E-02
 Average contact pair depth                   0.71429E-02
 Default pinball region factor PINB           0.25000    
 The resulting pinball region                 0.17857E-02
 Initial penetration/gap is excluded.
 Bonded contact (always) is defined.

 *** NOTE ***                            CP =       0.343   TIME= 03:15:44
 Max.  Initial penetration 1.110223025E-16 was detected between contact  
 element 3955 and target element 3945.                                   
 ****************************************
  

 *** WARNING ***                         CP =       0.374   TIME= 03:15:44
 The modal analysis has non-zero displacements defined, which will cause 
 a load vector to be generated.  The load vector may be used by the      
 mode superposition analyses.  This feature is not documented.           


                         ***********  PRECISE MASS SUMMARY  ***********

   TOTAL RIGID BODY MASS MATRIX ABOUT ORIGIN
               Translational mass               |   Coupled translational/rotational mass
         3.3354        0.0000        0.0000     |     0.0000      -0.43818      -0.14338E-02
         0.0000        3.3354        0.0000     |    0.43818        0.0000      -0.14179    
         0.0000        0.0000        3.3354     |    0.14338E-02   0.14179        0.0000    
     ------------------------------------------ | ------------------------------------------
                                                |         Rotational mass (inertia)
                                                |    0.90678E-01   0.60946E-04  -0.18623E-01
                                                |    0.60946E-04   0.19389       0.18830E-03
                                                |   -0.18623E-01   0.18830E-03   0.10414    

   TOTAL MASS =  3.3354    
     The mass principal axes coincide with the global Cartesian axes

   CENTER OF MASS (X,Y,Z)=  -0.42511E-01   0.42986E-03  -0.13137    

   TOTAL INERTIA ABOUT CENTER OF MASS
        0.33114E-01  -0.50967E-08   0.40641E-05
       -0.50967E-08   0.13030      -0.58501E-07
        0.40641E-05  -0.58501E-07   0.98109E-01
     The inertia principal axes coincide with the global Cartesian axes


  *** MASS SUMMARY BY ELEMENT TYPE ***

  TYPE      MASS
     1   1.28752    
     2  0.149502E-01
     3  0.149502E-01
     4  0.123212    
     5   1.28751    
     6  0.149502E-01
     7  0.149502E-01
     8  0.123212    
     9  0.454162    

 Range of element maximum matrix coefficients in global coordinates
 Maximum = 6.054623541E+10 at element 3889.                              
 Minimum = 315045913 at element 199.                                     

   *** ELEMENT MATRIX FORMULATION TIMES
     TYPE    NUMBER   ENAME      TOTAL CP  AVE CP

        1      1801  SOLID187      0.187   0.000104
        2         5  SOLID226      0.016   0.003120
        3         5  SOLID186      0.000   0.000000
        4        35  SOLID186      0.000   0.000000
        5      1829  SOLID187      0.094   0.000051
        6         5  SOLID186      0.000   0.000000
        7         5  SOLID186      0.000   0.000000
        8        35  SOLID186      0.000   0.000000
        9        60  SOLID186      0.031   0.000520
       10        12  CONTA174      0.000   0.000000
       11        12  TARGE170      0.000   0.000000
       12        13  CONTA174      0.000   0.000000
       13        13  TARGE170      0.000   0.000000
       14        10  CONTA174      0.000   0.000000
       15        10  TARGE170      0.000   0.000000
       16        10  CONTA174      0.000   0.000000
       17        10  TARGE170      0.000   0.000000
       18        12  CONTA174      0.000   0.000000
       19        12  TARGE170      0.000   0.000000
       20        13  CONTA174      0.000   0.000000
       21        13  TARGE170      0.000   0.000000
       22        10  CONTA174      0.000   0.000000
       23        10  TARGE170      0.000   0.000000
       24        10  CONTA174      0.000   0.000000
       25        10  TARGE170      0.000   0.000000
 Time at end of element matrix formulation CP = 0.592803836.             

  BLOCK LANCZOS CALCULATION OF UP TO   14 EIGENVECTORS.
  NUMBER OF EQUATIONS              =        23697
  MAXIMUM WAVEFRONT                =          324
  MAXIMUM MODES STORED             =           14
  MINIMUM EIGENVALUE               =  0.20000E+05
  MAXIMUM EIGENVALUE               =  0.22000E+05


  Local memory allocated for solver              =     38.566 MB
  Local memory required for in-core solution     =     36.772 MB
  Local memory required for out-of-core solution =     15.375 MB

  Total memory allocated for solver              =     77.105 MB
  Total memory required for in-core solution     =     73.519 MB
  Total memory required for out-of-core solution =     30.904 MB

 *** NOTE ***                            CP =       0.858   TIME= 03:15:44
 The Distributed Sparse Matrix Solver used by the Block Lanczos          
 eigensolver is currently running in the in-core memory mode.  This      
 memory mode uses the most amount of memory in order to avoid using the  
 hard drive as much as possible, which most often results in the         
 fastest solution time.  This mode is recommended if enough physical     
 memory is present to accommodate all of the solver data.                

 *** NOTE ***                            CP =       1.466   TIME= 03:15:45
 Fewer modes than the requested number of modes ( 14 ) were computed.    
 The range specified (FREQB= 20000, FREQE= 22000) contains only 10       
 modes.                                                                  

 *** ANSYS - ENGINEERING ANALYSIS SYSTEM  RELEASE Release 19.2     19.2     ***
 DISTRIBUTED ANSYS Academic Teaching Introductory              

 01055371  VERSION=WINDOWS x64   03:15:45  FEB 04, 2019 CP=      1.466

 DISPOSITIVO--Modal (A5)                                                       



 *** FREQUENCIES FROM BLOCK LANCZOS ITERATION ***

  MODE    FREQUENCY (HERTZ)      



   FREQUENCY RANGE REQUESTED=   20000.0       22000.0    
    1     20020.13598408    
    2     20156.80598437    
    3     20278.73359124    
    4     20349.51629180    
    5     20743.23143445    
    6     21246.30316377    
    7     21345.83859086    
    8     21638.39563859    
    9     21701.68076046    
   10     21804.55474173    

 *** ANSYS - ENGINEERING ANALYSIS SYSTEM  RELEASE Release 19.2     19.2     ***
 DISTRIBUTED ANSYS Academic Teaching Introductory              

 01055371  VERSION=WINDOWS x64   03:15:45  FEB 04, 2019 CP=      1.498

 DISPOSITIVO--Modal (A5)                                                       





          ***** PARTICIPATION FACTOR CALCULATION *****  X  DIRECTION
                                                                                  CUMULATIVE     RATIO EFF.MASS
  MODE   FREQUENCY       PERIOD      PARTIC.FACTOR     RATIO    EFFECTIVE MASS   MASS FRACTION   TO TOTAL MASS
     1     20020.1       0.49950E-04   0.56512E-03    0.008457    0.319363E-06    0.706825E-04    0.957491E-07
     2     20156.8       0.49611E-04  -0.87856E-03    0.013147    0.771864E-06    0.241514E-03    0.231414E-06
     3     20278.7       0.49313E-04   0.38105E-03    0.005702    0.145201E-06    0.273650E-03    0.435332E-07
     4     20349.5       0.49141E-04  -0.44072E-02    0.065950    0.194237E-04    0.457256E-02    0.582346E-05
     5     20743.2       0.48208E-04   0.33018E-03    0.004941    0.109017E-06    0.459668E-02    0.326846E-07
     6     21246.3       0.47067E-04   0.33906E-03    0.005074    0.114964E-06    0.462213E-02    0.344676E-07
     7     21345.8       0.46848E-04   0.36322E-02    0.054353    0.131931E-04    0.754206E-02    0.395545E-05
     8     21638.4       0.46214E-04  -0.19717E-03    0.002950    0.388756E-07    0.755067E-02    0.116554E-07
     9     21701.7       0.46079E-04  -0.42849E-02    0.064120    0.183607E-04    0.116143E-01    0.550476E-05
    10     21804.6       0.45862E-04  -0.66827E-01    1.000000    0.446580E-02     1.00000        0.133890E-02
 -----------------------------------------------------------------------------------------------------------------
   sum                                                            0.451828E-02                    0.135464E-02
 -----------------------------------------------------------------------------------------------------------------



          ***** PARTICIPATION FACTOR CALCULATION *****  Y  DIRECTION
                                                                                  CUMULATIVE     RATIO EFF.MASS
  MODE   FREQUENCY       PERIOD      PARTIC.FACTOR     RATIO    EFFECTIVE MASS   MASS FRACTION   TO TOTAL MASS
     1     20020.1       0.49950E-04   0.31757E-03    0.003132    0.100852E-06    0.930390E-05    0.302366E-07
     2     20156.8       0.49611E-04  -0.10141        1.000000    0.102843E-01    0.948770        0.308337E-02
     3     20278.7       0.49313E-04  -0.50504E-02    0.049801    0.255069E-04    0.951123        0.764729E-05
     4     20349.5       0.49141E-04  -0.10091E-02    0.009950    0.101821E-05    0.951217        0.305272E-06
     5     20743.2       0.48208E-04  -0.91286E-03    0.009002    0.833319E-06    0.951294        0.249839E-06
     6     21246.3       0.47067E-04   0.22917E-01    0.225984    0.525209E-03    0.999746        0.157464E-03
     7     21345.8       0.46848E-04   0.14391E-02    0.014191    0.207107E-05    0.999937        0.620931E-06
     8     21638.4       0.46214E-04   0.10064E-03    0.000992    0.101283E-07    0.999938        0.303660E-08
     9     21701.7       0.46079E-04  -0.74268E-03    0.007323    0.551580E-06    0.999989        0.165370E-06
    10     21804.6       0.45862E-04  -0.34078E-03    0.003360    0.116134E-06     1.00000        0.348185E-07
 -----------------------------------------------------------------------------------------------------------------
   sum                                                            0.108397E-01                    0.324989E-02
 -----------------------------------------------------------------------------------------------------------------



          ***** PARTICIPATION FACTOR CALCULATION *****  Z  DIRECTION
                                                                                  CUMULATIVE     RATIO EFF.MASS
  MODE   FREQUENCY       PERIOD      PARTIC.FACTOR     RATIO    EFFECTIVE MASS   MASS FRACTION   TO TOTAL MASS
     1     20020.1       0.49950E-04  -0.31508E-03    0.027395    0.992723E-07    0.711862E-03    0.297631E-07
     2     20156.8       0.49611E-04  -0.12762E-04    0.001110    0.162869E-09    0.713030E-03    0.488302E-10
     3     20278.7       0.49313E-04   0.12008E-02    0.104405    0.144186E-05    0.110523E-01    0.432288E-06
     4     20349.5       0.49141E-04  -0.11501E-01    1.000000    0.132275E-03    0.959571        0.396577E-04
     5     20743.2       0.48208E-04   0.22715E-04    0.001975    0.515961E-09    0.959575        0.154691E-09
     6     21246.3       0.47067E-04  -0.17465E-03    0.015186    0.305039E-07    0.959794        0.914544E-08
     7     21345.8       0.46848E-04  -0.32620E-03    0.028363    0.106410E-06    0.960557        0.319029E-07
     8     21638.4       0.46214E-04   0.63134E-04    0.005489    0.398595E-08    0.960586        0.119504E-08
     9     21701.7       0.46079E-04   0.22465E-02    0.195331    0.504686E-05    0.996776        0.151311E-05
    10     21804.6       0.45862E-04   0.67056E-03    0.058304    0.449656E-06     1.00000        0.134812E-06
 -----------------------------------------------------------------------------------------------------------------
   sum                                                            0.139454E-03                    0.418102E-04
 -----------------------------------------------------------------------------------------------------------------



          ***** PARTICIPATION FACTOR CALCULATION *****ROTX DIRECTION
                                                                                  CUMULATIVE     RATIO EFF.MASS
  MODE   FREQUENCY       PERIOD      PARTIC.FACTOR     RATIO    EFFECTIVE MASS   MASS FRACTION   TO TOTAL MASS
     1     20020.1       0.49950E-04   0.11003E-03    0.003127    0.121055E-07    0.927297E-05    0.133500E-06
     2     20156.8       0.49611E-04  -0.35191E-01    1.000000    0.123841E-02    0.948643        0.136572E-01
     3     20278.7       0.49313E-04  -0.17523E-02    0.049794    0.307054E-05    0.950995        0.338620E-04
     4     20349.5       0.49141E-04  -0.35498E-03    0.010087    0.126014E-06    0.951092        0.138969E-05
     5     20743.2       0.48208E-04  -0.31702E-03    0.009008    0.100500E-06    0.951169        0.110831E-05
     6     21246.3       0.47067E-04   0.79635E-02    0.226293    0.634171E-04    0.999747        0.699365E-03
     7     21345.8       0.46848E-04   0.49986E-03    0.014204    0.249857E-06    0.999938        0.275543E-05
     8     21638.4       0.46214E-04   0.35023E-04    0.000995    0.122663E-08    0.999939        0.135272E-07
     9     21701.7       0.46079E-04  -0.25708E-03    0.007305    0.660925E-07    0.999990        0.728870E-06
    10     21804.6       0.45862E-04  -0.11557E-03    0.003284    0.133573E-07     1.00000        0.147305E-06
 -----------------------------------------------------------------------------------------------------------------
   sum                                                            0.130546E-02                    0.143967E-01
 -----------------------------------------------------------------------------------------------------------------



          ***** PARTICIPATION FACTOR CALCULATION *****ROTY DIRECTION
                                                                                  CUMULATIVE     RATIO EFF.MASS
  MODE   FREQUENCY       PERIOD      PARTIC.FACTOR     RATIO    EFFECTIVE MASS   MASS FRACTION   TO TOTAL MASS
     1     20020.1       0.49950E-04  -0.25365E-03    0.021603    0.643367E-07    0.442978E-03    0.331823E-06
     2     20156.8       0.49611E-04   0.43369E-03    0.036936    0.188085E-06    0.173800E-02    0.970068E-06
     3     20278.7       0.49313E-04  -0.13278E-03    0.011309    0.176302E-07    0.185939E-02    0.909293E-07
     4     20349.5       0.49141E-04   0.14931E-02    0.127162    0.222927E-05    0.172086E-01    0.114977E-04
     5     20743.2       0.48208E-04  -0.14108E-03    0.012015    0.199030E-07    0.173456E-01    0.102652E-06
     6     21246.3       0.47067E-04  -0.21462E-03    0.018279    0.460613E-07    0.176628E-01    0.237566E-06
     7     21345.8       0.46848E-04  -0.19797E-02    0.168610    0.391932E-05    0.446485E-01    0.202143E-04
     8     21638.4       0.46214E-04   0.78645E-04    0.006698    0.618506E-08    0.446911E-01    0.319000E-07
     9     21701.7       0.46079E-04   0.94006E-03    0.080063    0.883712E-06    0.507757E-01    0.455783E-05
    10     21804.6       0.45862E-04   0.11741E-01    1.000000    0.137862E-03     1.00000        0.711039E-03
 -----------------------------------------------------------------------------------------------------------------
   sum                                                            0.145237E-03                    0.749073E-03
 -----------------------------------------------------------------------------------------------------------------



          ***** PARTICIPATION FACTOR CALCULATION *****ROTZ DIRECTION
                                                                                  CUMULATIVE     RATIO EFF.MASS
  MODE   FREQUENCY       PERIOD      PARTIC.FACTOR     RATIO    EFFECTIVE MASS   MASS FRACTION   TO TOTAL MASS
     1     20020.1       0.49950E-04  -0.70456E-03    0.040532    0.496407E-06    0.148400E-02    0.476686E-05
     2     20156.8       0.49611E-04   0.52087E-02    0.299645    0.271303E-04    0.825896E-01    0.260525E-03
     3     20278.7       0.49313E-04  -0.17383E-01    1.000000    0.302164E-03    0.985902        0.290160E-02
     4     20349.5       0.49141E-04  -0.19881E-02    0.114369    0.395236E-05    0.997718        0.379535E-04
     5     20743.2       0.48208E-04   0.46042E-04    0.002649    0.211989E-08    0.997724        0.203567E-07
     6     21246.3       0.47067E-04  -0.84136E-03    0.048402    0.707883E-06    0.999840        0.679761E-05
     7     21345.8       0.46848E-04  -0.68758E-04    0.003956    0.472765E-08    0.999855        0.453984E-07
     8     21638.4       0.46214E-04  -0.19982E-03    0.011495    0.399287E-07    0.999974        0.383425E-06
     9     21701.7       0.46079E-04   0.89302E-04    0.005137    0.797477E-08    0.999998        0.765796E-07
    10     21804.6       0.45862E-04   0.27444E-04    0.001579    0.753153E-09     1.00000        0.723233E-08
 -----------------------------------------------------------------------------------------------------------------
   sum                                                            0.334506E-03                    0.321217E-02
 -----------------------------------------------------------------------------------------------------------------





 *** NOTE ***                            CP =       1.498   TIME= 03:15:45
 The modes requested are mass normalized (Nrmkey on MODOPT).  However,   
 the modal masses and kinetic energies below are calculated with unit    
 normalized modes.                                                       

        ***** MODAL MASSES, KINETIC ENERGIES, AND TRANSLATIONAL EFFECTIVE MASSES SUMMARY *****

                                                                         EFFECTIVE MASS
  MODE  FREQUENCY   MODAL MASS     KENE      |      X-DIR      RATIO%   Y-DIR      RATIO%   Z-DIR      RATIO% 
     1  0.2002E+05  0.2979E-12  0.2357E-02   |    0.3194E-06    0.00  0.1009E-06    0.00  0.9927E-07    0.00
     2  0.2016E+05  0.4126E-15  0.3309E-05   |    0.7719E-06    0.00  0.1028E-01    0.31  0.1629E-09    0.00
     3  0.2028E+05  0.3635E-15  0.2951E-05   |    0.1452E-06    0.00  0.2551E-04    0.00  0.1442E-05    0.00
     4  0.2035E+05  0.3710E-15  0.3033E-05   |    0.1942E-04    0.00  0.1018E-05    0.00  0.1323E-03    0.00
     5  0.2074E+05  0.5106E-11  0.4337E-01   |    0.1090E-06    0.00  0.8333E-06    0.00  0.5160E-09    0.00
     6  0.2125E+05  0.8044E-14  0.7168E-04   |    0.1150E-06    0.00  0.5252E-03    0.02  0.3050E-07    0.00
     7  0.2135E+05  0.7209E-12  0.6484E-02   |    0.1319E-04    0.00  0.2071E-05    0.00  0.1064E-06    0.00
     8  0.2164E+05  0.4059E-11  0.3751E-01   |    0.3888E-07    0.00  0.1013E-07    0.00  0.3986E-08    0.00
     9  0.2170E+05  0.8476E-13  0.7880E-03   |    0.1836E-04    0.00  0.5516E-06    0.00  0.5047E-05    0.00
    10  0.2180E+05  0.6587E-15  0.6182E-05   |    0.4466E-02    0.13  0.1161E-06    0.00  0.4497E-06    0.00
 --------------------------------------------------------------------------------------------------------------
   sum                                       |    0.4518E-02    0.14  0.1084E-01    0.32  0.1395E-03    0.00
 --------------------------------------------------------------------------------------------------------------


 *** ANSYS BINARY FILE STATISTICS
  BUFFER SIZE USED= 16384
        1.125 MB WRITTEN ON ELEMENT SAVED DATA FILE: file0.esav
        9.000 MB WRITTEN ON ASSEMBLED MATRIX FILE: file0.full
        1.625 MB WRITTEN ON MODAL MATRIX FILE: file0.mode
        2.562 MB WRITTEN ON RESULTS FILE: file0.rst
 *************** Write FE CONNECTORS *********

 WRITE OUT CONSTRAINT EQUATIONS TO FILE= file.ce                                                                                                                                                                                                                                                             

 *GET  _NMODALSOLPROC  FROM  ACTI  ITEM=NUMC       VALUE=  2.00000000    

 FINISH SOLUTION PROCESSING


 ***** ROUTINE COMPLETED *****  CP =         1.529



 PRINTOUT RESUMED BY /GOP

 *GET  _WALLASOL  FROM  ACTI  ITEM=TIME WALL  VALUE=  3.26250000    

 *** ANSYS - ENGINEERING ANALYSIS SYSTEM  RELEASE Release 19.2     19.2     ***
 DISTRIBUTED ANSYS Academic Teaching Introductory              

 01055371  VERSION=WINDOWS x64   03:15:45  FEB 04, 2019 CP=      1.529

 DISPOSITIVO--Modal (A5)                                                       



          ***** ANSYS RESULTS INTERPRETATION (POST1) *****

 *** NOTE ***                            CP =       1.529   TIME= 03:15:45
 Reading results into the database (SET command) will update the current 
 displacement and force boundary conditions in the database with the     
 values from the results file for that load set.  Note that any          
 subsequent solutions will use these values unless action is taken to    
 either SAVE the current values or not overwrite them (/EXIT,NOSAVE).    

 PRINTOUT RESUMED BY /GOP

 Set Encoding of XML File to:ISO-8859-1

 Set Output of XML File to:
     PARM,     ,     ,     ,     ,     ,     ,     ,     ,     ,     ,     ,
         ,     ,     ,     ,     ,     ,     ,

 DATABASE WRITTEN ON FILE  parm.xml                                                                                                                                                                                                                                                            

 EXIT THE ANSYS POST1 DATABASE PROCESSOR


 ***** ROUTINE COMPLETED *****  CP =         1.560



 PRINTOUT RESUMED BY /GOP

 *GET  _WALLDONE  FROM  ACTI  ITEM=TIME WALL  VALUE=  3.26250000    

 PARAMETER _PREPTIME =     0.000000000    

 PARAMETER _SOLVTIME =     1.000000000    

 PARAMETER _POSTTIME =     0.000000000    

 PARAMETER _TOTALTIM =     1.000000000    

 EXIT ANSYS WITHOUT SAVING DATABASE


 NUMBER OF WARNING MESSAGES ENCOUNTERED=          3
 NUMBER OF ERROR   MESSAGES ENCOUNTERED=          0

+--------- D I S T R I B U T E D   A N S Y S   S T A T I S T I C S ------------+

Release: Release 19.2       Build: 19.2       Update: UP20180808   Platform: WINDOWS x64 
Date Run: 02/04/2019   Time: 03:15     Process ID: 6820
Operating System: Windows 7 Service Pack 1 (Build: 7601)

Processor Model: Intel(R) Core(TM) i7-4790 CPU @ 3.60GHz

Compiler: Intel(R) FORTRAN Compiler Version 17.0.4  (Build: 20170411)
          Intel(R) C/C++ Compiler Version 17.0.4  (Build: 20170411)
          Intel(R) Math Kernel Library Version 2017.0.3 Product Build 20170413

Number of machines requested            :    1
Total number of cores available         :    8
Number of physical cores available      :    4
Number of processes requested           :    2
Number of threads per process requested :    1
Total number of cores requested         :    2 (Distributed Memory Parallel)               
MPI Type: INTELMPI
MPI Version: Intel(R) MPI Library 2017 Update 3 for Windows* OS


GPU Acceleration: Not Requested

Job Name: file0
Input File: dummy.dat

  Core                Machine Name   Working Directory
 -----------------------------------------------------
     0                 chandler-PC   C:\Users\chandler\Documents\analise_harmonica_transportador\_ProjectScratch\Scr1BC0
     1                 chandler-PC   C:\Users\chandler\Documents\analise_harmonica_transportador\_ProjectScratch\Scr1BC0
 
Latency time from master to core     1 =    0.502 microseconds
 
Communication speed from master to core     1 =  6092.85 MB/sec

Total CPU time for main thread                    :        1.3 seconds
Total CPU time summed for all threads             :        1.7 seconds

Elapsed time spent pre-processing model (/PREP7)  :        0.0 seconds
Elapsed time spent solution - preprocessing       :        0.0 seconds
Elapsed time spent computing solution             :        1.0 seconds
Elapsed time spent solution - postprocessing      :        0.0 seconds
Elapsed time spent post-processing model (/POST1) :        0.0 seconds
 
Eigensolver used                                  :            Block Lanczos
Equation solver computational rate                :       21.9 Gflops

Maximum total memory used                         :      359.0 MB
Maximum total memory allocated                    :     3136.0 MB
Total physical memory available                   :         16 GB

Total amount of I/O written to disk               :        0.0 GB
Total amount of I/O read from disk                :        0.0 GB

+------ E N D   D I S T R I B U T E D   A N S Y S   S T A T I S T I C S -------+


 *---------------------------------------------------------------------------*
 |                                                                           |
 |                       DISTRIBUTED ANSYS RUN COMPLETED                     |
 |                                                                           |
 |---------------------------------------------------------------------------|
 |                                                                           |
 | Ansys Release 19.2          Build 19.2         UP20180808     WINDOWS x64 |
 |                                                                           |
 |---------------------------------------------------------------------------|
 |                                                                           |
 | Database Requested(-db)  1024 MB    Scratch Memory Requested      1024 MB |
 | Maximum Database Used       5 MB    Maximum Scratch Memory Used    179 MB |
 |                                                                           |
 |---------------------------------------------------------------------------|
 |                                                                           |
 |        CP Time      (sec) =          1.654       Time  =  03:15:45        |
 |        Elapsed Time (sec) =          3.000       Date  =  02/04/2019      |
 |                                                                           |
 *---------------------------------------------------------------------------*
