
 ANSYS Academic Teaching Introductory              


 *------------------------------------------------------------------*
 |                                                                  |
 |   W E L C O M E   T O   T H E   A N S Y S (R)  P R O G R A M     |
 |                                                                  |
 *------------------------------------------------------------------*




 ***************************************************************
 *            ANSYS Release 19.2     LEGAL NOTICES             *
 ***************************************************************
 *                                                             *
 * Copyright 1971-2018 ANSYS, Inc.  All rights reserved.       *
 * Unauthorized use, distribution or duplication is            *
 * prohibited.                                                 *
 *                                                             *
 * Ansys is a registered trademark of ANSYS, Inc. or its       *
 * subsidiaries in the United States or other countries.       *
 * See the ANSYS, Inc. online documentation or the ANSYS, Inc. *
 * documentation CD or online help for the complete Legal      *
 * Notice.                                                     *
 *                                                             *
 ***************************************************************
 *                                                             *
 * THIS ANSYS SOFTWARE PRODUCT AND PROGRAM DOCUMENTATION       *
 * INCLUDE TRADE SECRETS AND CONFIDENTIAL AND PROPRIETARY      *
 * PRODUCTS OF ANSYS, INC., ITS SUBSIDIARIES, OR LICENSORS.    *
 * The software products and documentation are furnished by    *
 * ANSYS, Inc. or its subsidiaries under a software license    *
 * agreement that contains provisions concerning               *
 * non-disclosure, copying, length and nature of use,          *
 * compliance with exporting laws, warranties, disclaimers,    *
 * limitations of liability, and remedies, and other           *
 * provisions.  The software products and documentation may be *
 * used, disclosed, transferred, or copied only in accordance  *
 * with the terms and conditions of that software license      *
 * agreement.                                                  *
 *                                                             *
 * ANSYS, Inc. is a UL registered                              *
 * ISO 9001:2008 company.                                      *
 *                                                             *
 ***************************************************************
 *                                                             *
 * This product is subject to U.S. laws governing export and   *
 * re-export.                                                  *
 *                                                             *
 * For U.S. Government users, except as specifically granted   *
 * by the ANSYS, Inc. software license agreement, the use,     *
 * duplication, or disclosure by the United States Government  *
 * is subject to restrictions stated in the ANSYS, Inc.        *
 * software license agreement and FAR 12.212 (for non-DOD      *
 * licenses).                                                  *
 *                                                             *
 ***************************************************************

 Release 19.2
     
 Point Releases and Patches installed:   
     
 Academic Student Release 19.2   
 FENSAP-ICE Release 19.2 


          *****  ANSYS COMMAND LINE ARGUMENTS  *****
  BATCH MODE REQUESTED (-b)    = NOLIST
  INPUT FILE COPY MODE (-c)    = COPY
  DISTRIBUTED MEMORY PARALLEL REQUESTED
       2 PARALLEL PROCESSES REQUESTED WITH SINGLE THREAD PER PROCESS
    TOTAL OF     2 CORES REQUESTED
  DESIGNXPLORER REQUESTED
  MPI OPTION                   = INTELMPI
  INPUT FILE NAME              = C:\Users\chandler\Documents\analise_harmonica_transportador\_ProjectScratch\Scr5B5D\dummy.dat
  OUTPUT FILE NAME             = C:\Users\chandler\Documents\analise_harmonica_transportador\_ProjectScratch\Scr5B5D\solve.out
  START-UP FILE MODE           = NOREAD
  STOP FILE MODE               = NOREAD

 RELEASE= Release 19.2         BUILD= 19.2      UP20180808   VERSION=WINDOWS x64 
 CURRENT JOBNAME=file0  15:46:55  JAN 27, 2019 CP=      0.094


 PARAMETER _DS_PROGRESS =     999.0000000    

 /INPUT FILE= ds.dat  LINE=       0



 *** NOTE ***                            CP =       0.187   TIME= 15:46:55
 The /CONFIG,NOELDB command is not valid in a Distributed ANSYS          
 solution.  Command is ignored.                                          

 *GET  _WALLSTRT  FROM  ACTI  ITEM=TIME WALL  VALUE=  15.7819444    

 TITLE= 
 DISPOSITIVO--Modal (A5)                                                       


 SET PARAMETER DIMENSIONS ON  _WB_PROJECTSCRATCH_DIR
  TYPE=STRI  DIMENSIONS=      248        1        1

 PARAMETER _WB_PROJECTSCRATCH_DIR(1) = C:\Users\chandler\Documents\analise_harmonica_transportador\_ProjectScratch\Scr5B5D\

 SET PARAMETER DIMENSIONS ON  _WB_SOLVERFILES_DIR
  TYPE=STRI  DIMENSIONS=      248        1        1

 PARAMETER _WB_SOLVERFILES_DIR(1) = C:\Users\chandler\Documents\analise_harmonica_transportador\DISPOSITIVO_files\dp0\SYS\MECH\

 SET PARAMETER DIMENSIONS ON  _WB_USERFILES_DIR
  TYPE=STRI  DIMENSIONS=      248        1        1

 PARAMETER _WB_USERFILES_DIR(1) = C:\Users\chandler\Documents\analise_harmonica_transportador\DISPOSITIVO_files\user_files\
 --- Data in consistent MKS units. See Solving Units in the help system for more

 MKS UNITS SPECIFIED FOR INTERNAL    
  LENGTH        (l)  = METER (M)
  MASS          (M)  = KILOGRAM (KG)
  TIME          (t)  = SECOND (SEC)
  TEMPERATURE   (T)  = CELSIUS (C)
  TOFFSET            = 273.0
  CHARGE        (Q)  = COULOMB
  FORCE         (f)  = NEWTON (N) (KG-M/SEC2)
  HEAT               = JOULE (N-M)

  PRESSURE           = PASCAL (NEWTON/M**2)
  ENERGY        (W)  = JOULE (N-M)
  POWER         (P)  = WATT (N-M/SEC)
  CURRENT       (i)  = AMPERE (COULOMBS/SEC)
  CAPACITANCE   (C)  = FARAD
  INDUCTANCE    (L)  = HENRY
  MAGNETIC FLUX      = WEBER
  RESISTANCE    (R)  = OHM
  ELECTRIC POTENTIAL = VOLT

 INPUT  UNITS ARE ALSO SET TO MKS 

 *** ANSYS - ENGINEERING ANALYSIS SYSTEM  RELEASE Release 19.2     19.2     ***
 DISTRIBUTED ANSYS Academic Teaching Introductory              

 01055371  VERSION=WINDOWS x64   15:46:55  JAN 27, 2019 CP=      0.187

 DISPOSITIVO--Modal (A5)                                                       



          ***** ANSYS ANALYSIS DEFINITION (PREP7) *****
 *********** Nodes for the whole assembly ***********
 *********** Elements for Body 1 "SYS\Pe_a de alum_nio" ***********
 *********** Elements for Body 2 "SYS\Cer_mica1" ***********
 *********** Elements for Body 3 "SYS\Cer_mica2" ***********
 *********** Elements for Body 4 "SYS\Base de alum_nio" ***********
 *********** Elements for Body 5 "SYS\Pe_a de alum_nio" ***********
 *********** Elements for Body 6 "SYS\Cer_mica1" ***********
 *********** Elements for Body 7 "SYS\Cer_mica2" ***********
 *********** Elements for Body 8 "SYS\Base de alum_nio" ***********
 *********** Elements for Body 9 "SYS\Viga de Alum_nio" ***********
 *********** Send User Defined Coordinate System(s) ***********
 *********** Set Reference Temperature ***********
 *********** Send Materials ***********
 *********** Create Contact "Contact Region" ***********
             Real Constant Set For Above Contact Is 11 & 10
 *********** Create Contact "Contact Region 2" ***********
             Real Constant Set For Above Contact Is 13 & 12
 *********** Create Contact "Contact Region 3" ***********
             Real Constant Set For Above Contact Is 15 & 14
 *********** Create Contact "Contact Region 4" ***********
             Real Constant Set For Above Contact Is 17 & 16
 *********** Create Contact "Contact Region 5" ***********
             Real Constant Set For Above Contact Is 19 & 18
 *********** Create Contact "Contact Region 6" ***********
             Real Constant Set For Above Contact Is 21 & 20
 *********** Create Contact "Contact Region 7" ***********
             Real Constant Set For Above Contact Is 23 & 22
 *********** Create Contact "Contact Region 8" ***********
             Real Constant Set For Above Contact Is 25 & 24
 *********** Send Named Selection as Node Component ***********
 *********** Send Named Selection as Node Component ***********
 *********** Send Named Selection as Node Component ***********
 *********** Send Named Selection as Node Component ***********
 *********** Fixed Supports ***********


 ***** ROUTINE COMPLETED *****  CP =         0.250


 --- Number of total nodes = 4977
 --- Number of contact elements = 668
 --- Number of spring elements = 0
 --- Number of bearing elements = 0
 --- Number of solid elements = 1216
 --- Number of condensed parts = 0
 --- Number of total elements = 1884

 *GET  _WALLBSOL  FROM  ACTI  ITEM=TIME WALL  VALUE=  15.7819444    

 *****  ANSYS SOLUTION ROUTINE  *****


 PERFORM A MODAL ANALYSIS
  THIS WILL BE A NEW ANALYSIS


 USE SYM. BLOCK LANCZOS MODE EXTRACTION METHOD
  EXTRACT   12 MODES
  EXTRACT FREQUENCIES IN THE RANGE   20000.     TO   22000.    
  NORMALIZE THE MODE SHAPES TO THE MASS MATRIX

 ERASE THE CURRENT DATABASE OUTPUT CONTROL TABLE.


 WRITE ALL  ITEMS TO THE DATABASE WITH A FREQUENCY OF NONE
   FOR ALL APPLICABLE ENTITIES

 WRITE NSOL ITEMS TO THE DATABASE WITH A FREQUENCY OF ALL 
   FOR ALL APPLICABLE ENTITIES


 EXPAND ALL EXTRACTED MODES
  DO NOT CALCULATE ELEMENT RESULTS

 DO NOT COMBINE ELEMENT SAVE DATA FILES (.esav) AFTER DISTRIBUTED PARALLEL SOLUTION

 DO NOT COMBINE ELEMENT MATRIX FILES (.emat) AFTER DISTRIBUTED PARALLEL SOLUTION

 DO NOT COMBINE ASSEMBLED MATRIX FILES (.full) AFTER DISTRIBUTED PARALLEL SOLUTION

 SPECIFIED CONSTRAINT VOLT FOR PICKED NODES 
 REAL=  700.000000       IMAG=  0.00000000    

 SPECIFIED CONSTRAINT VOLT FOR PICKED NODES 
 REAL=  0.00000000       IMAG=  0.00000000    

 *GET  ANSINTER_  FROM  ACTI  ITEM=INT        VALUE=  0.00000000    

 *IF  ANSINTER_                         ( =   0.00000     )  NE  
      0                                 ( =   0.00000     )  THEN    

 *ENDIF

 *** NOTE ***                            CP =       0.281   TIME= 15:46:55
 The automatic domain decomposition logic has selected the MESH domain   
 decomposition method with 2 processes per solution.                     

 *****  ANSYS SOLVE    COMMAND  *****

 *** WARNING ***                         CP =       0.281   TIME= 15:46:55
 Element shape checking is currently inactive.  Issue SHPP,ON or         
 SHPP,WARN to reactivate, if desired.                                    

 *** NOTE ***                            CP =       0.281   TIME= 15:46:55
 The model data was checked and warning messages were found.             
  Please review output or errors file (                                  
 C:\Users\chandler\Documents\analise_harmonica_transportador\_ProjectScr 
 ratch\Scr5B5D\file0.err ) for these warning messages.                   

 *** SELECTION OF ELEMENT TECHNOLOGIES FOR APPLICABLE ELEMENTS ***
      --- GIVE SUGGESTIONS AND RESET THE KEY OPTIONS ---

 ELEMENT TYPE    1 IS SOLID187. IT IS NOT ASSOCIATED WITH FULLY INCOMPRESSIBLE
 HYPERELASTIC MATERIALS. NO SUGGESTION IS AVAILABLE AND NO RESETTING IS NEEDED.

 ELEMENT TYPE    3 IS SOLID186. KEYOPT(2)=0 IS SUGGESTED AND HAS BEEN RESET.
  KEYOPT(1-12)=    0    0    0    0    0    0    0    0    0    0    0    0

 ELEMENT TYPE    4 IS SOLID186. KEYOPT(2)=0 IS SUGGESTED AND HAS BEEN RESET.
  KEYOPT(1-12)=    0    0    0    0    0    0    0    0    0    0    0    0

 ELEMENT TYPE    5 IS SOLID187. IT IS NOT ASSOCIATED WITH FULLY INCOMPRESSIBLE
 HYPERELASTIC MATERIALS. NO SUGGESTION IS AVAILABLE AND NO RESETTING IS NEEDED.

 ELEMENT TYPE    6 IS SOLID186. KEYOPT(2)=0 IS SUGGESTED AND HAS BEEN RESET.
  KEYOPT(1-12)=    0    0    0    0    0    0    0    0    0    0    0    0

 ELEMENT TYPE    7 IS SOLID186. KEYOPT(2)=0 IS SUGGESTED AND HAS BEEN RESET.
  KEYOPT(1-12)=    0    0    0    0    0    0    0    0    0    0    0    0

 ELEMENT TYPE    8 IS SOLID186. KEYOPT(2)=0 IS SUGGESTED AND HAS BEEN RESET.
  KEYOPT(1-12)=    0    0    0    0    0    0    0    0    0    0    0    0

 ELEMENT TYPE    9 IS SOLID186. KEYOPT(2)=0 IS SUGGESTED AND HAS BEEN RESET.
  KEYOPT(1-12)=    0    0    0    0    0    0    0    0    0    0    0    0



 *** ANSYS - ENGINEERING ANALYSIS SYSTEM  RELEASE Release 19.2     19.2     ***
 DISTRIBUTED ANSYS Academic Teaching Introductory              

 01055371  VERSION=WINDOWS x64   15:46:55  JAN 27, 2019 CP=      0.281

 DISPOSITIVO--Modal (A5)                                                       



                       S O L U T I O N   O P T I O N S

   PROBLEM DIMENSIONALITY. . . . . . . . . . . . .3-D                  
   DEGREES OF FREEDOM. . . . . . UX   UY   UZ   VOLT
   ANALYSIS TYPE . . . . . . . . . . . . . . . . .MODAL                
      EXTRACTION METHOD. . . . . . . . . . . . . .BLOCK LANCZOS
   OFFSET TEMPERATURE FROM ABSOLUTE ZERO . . . . .  273.15    
   NUMBER OF MODES TO EXTRACT. . . . . . . . . . .    12
   MODAL EXTRACTION RANGE. . . . . . . . . . . . .  20000.     TO   22000.    
   GLOBALLY ASSEMBLED MATRIX . . . . . . . . . . .SYMMETRIC  
   NUMBER OF MODES TO EXPAND . . . . . . . . . . .ALL
   ELEMENT RESULTS CALCULATION . . . . . . . . . .OFF

 *** NOTE ***                            CP =       0.281   TIME= 15:46:55
 Poisson's ratio PR input has been converted to NU input.                

 *** NOTE ***                            CP =       0.281   TIME= 15:46:55
 The structural-electrostatic analysis with KEYOPT(1) = 1001 of element  
 SOLID226 will be piezoelectric.                                         

 *** NOTE ***                            CP =       0.281   TIME= 15:46:55
 The conditions for direct assembly have been met.  No .emat or .erot    
 files will be produced.                                                 

 *** WARNING ***                         CP =       0.312   TIME= 15:46:55
 Contact element 1229 is missing DOF VOLT (and possibly others) of       
 underlying base element 268.  Similar mismatches may exist elsewhere,   
 but checking for this is discontinued.                                  

 *** NOTE ***                            CP =       0.312   TIME= 15:46:55
 Symmetric Deformable- deformable contact pair identified by real        
 constant set 10 and contact element type 10 has been set up.  The       
 companion pair has real constant set ID 11.  Both pairs should have     
 the same behavior.                                                      
 ANSYS will deactivate the current pair and keep its companion pair,     
 resulting in asymmetric contact.                                        
 Linear contact is defined
 Contact algorithm: Augmented Lagrange method
 Contact detection at: Gauss integration point
 Contact stiffness factor FKN                  10.000    
 The resulting initial contact stiffness      0.62119E+16
 Default penetration tolerance factor FTOLN   0.10000    
 The resulting penetration tolerance          0.64392E-03
 Default opening contact stiffness OPSF will be used.
 Default tangent stiffness factor FKT          1.0000    
 Use constant contact stiffness
 Default Max. friction stress TAUMAX          0.10000E+21
 Average contact surface length               0.12983E-01
 Average contact pair depth                   0.64392E-02
 Default pinball region factor PINB           0.25000    
 The resulting pinball region                 0.16098E-02
 Initial penetration/gap is excluded.
 Bonded contact (always) is defined.

 *** NOTE ***                            CP =       0.312   TIME= 15:46:55
 Max.  Initial penetration 5.551115123E-17 was detected between contact  
 element 1223 and target element 1280.                                   
 ****************************************
  

 *** NOTE ***                            CP =       0.312   TIME= 15:46:55
 Symmetric Deformable- deformable contact pair identified by real        
 constant set 11 and contact element type 10 has been set up.  The       
 companion pair has real constant set ID 10.  Both pairs should have     
 the same behavior.                                                      
 ANSYS will keep the current pair and deactivate its companion pair,     
 resulting in asymmetric contact.                                        
 Linear contact is defined
 Contact algorithm: Augmented Lagrange method
 Contact detection at: Gauss integration point
 Contact stiffness factor FKN                  10.000    
 The resulting initial contact stiffness      0.62119E+16
 Default penetration tolerance factor FTOLN   0.10000    
 The resulting penetration tolerance          0.31750E-03
 Default opening contact stiffness OPSF will be used.
 Default tangent stiffness factor FKT          1.0000    
 Use constant contact stiffness
 Default Max. friction stress TAUMAX          0.10000E+21
 Average contact surface length               0.32644E-02
 Average contact pair depth                   0.31750E-02
 Default pinball region factor PINB           0.25000    
 The resulting pinball region                 0.79375E-03
 Initial penetration/gap is excluded.
 Bonded contact (always) is defined.

 *** NOTE ***                            CP =       0.312   TIME= 15:46:55
 Max.  Initial penetration 5.551115123E-17 was detected between contact  
 element 1233 and target element 1217.                                   
 ****************************************
  

 *** NOTE ***                            CP =       0.312   TIME= 15:46:55
 Symmetric Deformable- deformable contact pair identified by real        
 constant set 12 and contact element type 12 has been set up.  The       
 companion pair has real constant set ID 13.  Both pairs should have     
 the same behavior.                                                      
 ANSYS will keep the current pair and deactivate its companion pair,     
 resulting in asymmetric contact.                                        
 Linear contact is defined
 Contact algorithm: Augmented Lagrange method
 Contact detection at: Gauss integration point
 Contact stiffness factor FKN                  10.000    
 The resulting initial contact stiffness      0.34344E+16
 Default penetration tolerance factor FTOLN   0.10000    
 The resulting penetration tolerance          0.11647E-02
 Default opening contact stiffness OPSF will be used.
 Default tangent stiffness factor FKT          1.0000    
 Use constant contact stiffness
 Default Max. friction stress TAUMAX          0.10000E+21
 Average contact surface length               0.73908E-02
 Average contact pair depth                   0.11647E-01
 Default pinball region factor PINB           0.25000    
 The resulting pinball region                 0.29117E-02
 Initial penetration/gap is excluded.
 Bonded contact (always) is defined.

 *** NOTE ***                            CP =       0.312   TIME= 15:46:55
 Max.  Initial penetration 4.33680869E-19 was detected between contact   
 element 1319 and target element 1324.                                   
 ****************************************
  

 *** NOTE ***                            CP =       0.312   TIME= 15:46:55
 Symmetric Deformable- deformable contact pair identified by real        
 constant set 13 and contact element type 12 has been set up.  The       
 companion pair has real constant set ID 12.  Both pairs should have     
 the same behavior.                                                      
 ANSYS will deactivate the current pair and keep its companion pair,     
 resulting in asymmetric contact.                                        
 Linear contact is defined
 Contact algorithm: Augmented Lagrange method
 Contact detection at: Gauss integration point
 Contact stiffness factor FKN                  10.000    
 The resulting initial contact stiffness      0.34344E+16
 Default penetration tolerance factor FTOLN   0.10000    
 The resulting penetration tolerance          0.64028E-03
 Default opening contact stiffness OPSF will be used.
 Default tangent stiffness factor FKT          1.0000    
 Use constant contact stiffness
 Default Max. friction stress TAUMAX          0.10000E+21
 Average contact surface length               0.21343E-01
 Average contact pair depth                   0.64028E-02
 Default pinball region factor PINB           0.25000    
 The resulting pinball region                 0.16007E-02
 Initial penetration/gap is excluded.
 Bonded contact (always) is defined.

 *** NOTE ***                            CP =       0.343   TIME= 15:46:55
 No contact was detected for this contact pair.                          
 ****************************************
  

 *** NOTE ***                            CP =       0.343   TIME= 15:46:55
 Symmetric Deformable- deformable contact pair identified by real        
 constant set 14 and contact element type 14 has been set up.  The       
 companion pair has real constant set ID 15.  Both pairs should have     
 the same behavior.                                                      
 ANSYS will keep the current pair and deactivate its companion pair,     
 resulting in asymmetric contact.                                        
 Linear contact is defined
 Contact algorithm: Augmented Lagrange method
 Contact detection at: Gauss integration point
 Contact stiffness factor FKN                  10.000    
 The resulting initial contact stiffness      0.71843E+16
 Default penetration tolerance factor FTOLN   0.10000    
 The resulting penetration tolerance          0.31750E-03
 Default opening contact stiffness OPSF will be used.
 Default tangent stiffness factor FKT          1.0000    
 Use constant contact stiffness
 Default Max. friction stress TAUMAX          0.10000E+21
 Average contact surface length               0.29857E-02
 Average contact pair depth                   0.31750E-02
 Default pinball region factor PINB           0.25000    
 The resulting pinball region                 0.79375E-03
 Initial penetration/gap is excluded.
 Bonded contact (always) is defined.

 *** NOTE ***                            CP =       0.343   TIME= 15:46:55
 Max.  Initial penetration 5.551115123E-17 was detected between contact  
 element 1361 and target element 1429.                                   
 ****************************************
  

 *** NOTE ***                            CP =       0.343   TIME= 15:46:55
 Symmetric Deformable- deformable contact pair identified by real        
 constant set 15 and contact element type 14 has been set up.  The       
 companion pair has real constant set ID 14.  Both pairs should have     
 the same behavior.                                                      
 ANSYS will deactivate the current pair and keep its companion pair,     
 resulting in asymmetric contact.                                        
 Linear contact is defined
 Contact algorithm: Augmented Lagrange method
 Contact detection at: Gauss integration point
 Contact stiffness factor FKN                  10.000    
 The resulting initial contact stiffness      0.71843E+16
 Default penetration tolerance factor FTOLN   0.10000    
 The resulting penetration tolerance          0.31750E-03
 Default opening contact stiffness OPSF will be used.
 Default tangent stiffness factor FKT          1.0000    
 Use constant contact stiffness
 Default Max. friction stress TAUMAX          0.10000E+21
 Average contact surface length               0.32644E-02
 Average contact pair depth                   0.31750E-02
 Default pinball region factor PINB           0.25000    
 The resulting pinball region                 0.79375E-03
 Initial penetration/gap is excluded.
 Bonded contact (always) is defined.

 *** NOTE ***                            CP =       0.343   TIME= 15:46:55
 Max.  Initial penetration 5.551115123E-17 was detected between contact  
 element 1395 and target element 1327.                                   
 ****************************************
  

 *** NOTE ***                            CP =       0.343   TIME= 15:46:55
 Symmetric Deformable- deformable contact pair identified by real        
 constant set 16 and contact element type 16 has been set up.  The       
 companion pair has real constant set ID 17.  Both pairs should have     
 the same behavior.                                                      
 ANSYS will keep the current pair and deactivate its companion pair,     
 resulting in asymmetric contact.                                        
 Linear contact is defined
 Contact algorithm: Augmented Lagrange method
 Contact detection at: Gauss integration point
 Contact stiffness factor FKN                  10.000    
 The resulting initial contact stiffness      0.64000E+16
 Default penetration tolerance factor FTOLN   0.10000    
 The resulting penetration tolerance          0.31750E-03
 Default opening contact stiffness OPSF will be used.
 Default tangent stiffness factor FKT          1.0000    
 Use constant contact stiffness
 Default Max. friction stress TAUMAX          0.10000E+21
 Average contact surface length               0.29857E-02
 Average contact pair depth                   0.31750E-02
 Default pinball region factor PINB           0.25000    
 The resulting pinball region                 0.79375E-03
 Initial penetration/gap is excluded.
 Bonded contact (always) is defined.

 *** NOTE ***                            CP =       0.343   TIME= 15:46:55
 Max.  Initial penetration 5.551115123E-17 was detected between contact  
 element 1497 and target element 1544.                                   
 ****************************************
  

 *** NOTE ***                            CP =       0.343   TIME= 15:46:55
 Symmetric Deformable- deformable contact pair identified by real        
 constant set 17 and contact element type 16 has been set up.  The       
 companion pair has real constant set ID 16.  Both pairs should have     
 the same behavior.                                                      
 ANSYS will deactivate the current pair and keep its companion pair,     
 resulting in asymmetric contact.                                        
 Linear contact is defined
 Contact algorithm: Augmented Lagrange method
 Contact detection at: Gauss integration point
 Contact stiffness factor FKN                  10.000    
 The resulting initial contact stiffness      0.64000E+16
 Default penetration tolerance factor FTOLN   0.10000    
 The resulting penetration tolerance          0.62500E-03
 Default opening contact stiffness OPSF will be used.
 Default tangent stiffness factor FKT          1.0000    
 Use constant contact stiffness
 Default Max. friction stress TAUMAX          0.10000E+21
 Average contact surface length               0.61619E-02
 Average contact pair depth                   0.62500E-02
 Default pinball region factor PINB           0.25000    
 The resulting pinball region                 0.15625E-02
 Initial penetration/gap is excluded.
 Bonded contact (always) is defined.

 *** NOTE ***                            CP =       0.343   TIME= 15:46:55
 Max.  Initial penetration 1.110223025E-16 was detected between contact  
 element 1539 and target element 1495.                                   
 ****************************************
  

 *** NOTE ***                            CP =       0.343   TIME= 15:46:55
 Symmetric Deformable- deformable contact pair identified by real        
 constant set 18 and contact element type 18 has been set up.  The       
 companion pair has real constant set ID 19.  Both pairs should have     
 the same behavior.                                                      
 ANSYS will deactivate the current pair and keep its companion pair,     
 resulting in asymmetric contact.                                        
 Linear contact is defined
 Contact algorithm: Augmented Lagrange method
 Contact detection at: Gauss integration point
 Contact stiffness factor FKN                  10.000    
 The resulting initial contact stiffness      0.62119E+16
 Default penetration tolerance factor FTOLN   0.10000    
 The resulting penetration tolerance          0.64392E-03
 Default opening contact stiffness OPSF will be used.
 Default tangent stiffness factor FKT          1.0000    
 Use constant contact stiffness
 Default Max. friction stress TAUMAX          0.10000E+21
 Average contact surface length               0.12983E-01
 Average contact pair depth                   0.64392E-02
 Default pinball region factor PINB           0.25000    
 The resulting pinball region                 0.16098E-02
 Initial penetration/gap is excluded.
 Bonded contact (always) is defined.

 *** NOTE ***                            CP =       0.343   TIME= 15:46:55
 Max.  Initial penetration 5.551115123E-17 was detected between contact  
 element 1558 and target element 1622.                                   
 ****************************************
  

 *** NOTE ***                            CP =       0.343   TIME= 15:46:55
 Symmetric Deformable- deformable contact pair identified by real        
 constant set 19 and contact element type 18 has been set up.  The       
 companion pair has real constant set ID 18.  Both pairs should have     
 the same behavior.                                                      
 ANSYS will keep the current pair and deactivate its companion pair,     
 resulting in asymmetric contact.                                        
 Linear contact is defined
 Contact algorithm: Augmented Lagrange method
 Contact detection at: Gauss integration point
 Contact stiffness factor FKN                  10.000    
 The resulting initial contact stiffness      0.62119E+16
 Default penetration tolerance factor FTOLN   0.10000    
 The resulting penetration tolerance          0.31750E-03
 Default opening contact stiffness OPSF will be used.
 Default tangent stiffness factor FKT          1.0000    
 Use constant contact stiffness
 Default Max. friction stress TAUMAX          0.10000E+21
 Average contact surface length               0.32644E-02
 Average contact pair depth                   0.31750E-02
 Default pinball region factor PINB           0.25000    
 The resulting pinball region                 0.79375E-03
 Initial penetration/gap is excluded.
 Bonded contact (always) is defined.

 *** NOTE ***                            CP =       0.343   TIME= 15:46:55
 Max.  Initial penetration 5.551115123E-17 was detected between contact  
 element 1564 and target element 1556.                                   
 ****************************************
  

 *** NOTE ***                            CP =       0.343   TIME= 15:46:55
 Symmetric Deformable- deformable contact pair identified by real        
 constant set 20 and contact element type 20 has been set up.  The       
 companion pair has real constant set ID 21.  Both pairs should have     
 the same behavior.                                                      
 ANSYS will keep the current pair and deactivate its companion pair,     
 resulting in asymmetric contact.                                        
 Linear contact is defined
 Contact algorithm: Augmented Lagrange method
 Contact detection at: Gauss integration point
 Contact stiffness factor FKN                  10.000    
 The resulting initial contact stiffness      0.35883E+16
 Default penetration tolerance factor FTOLN   0.10000    
 The resulting penetration tolerance          0.11147E-02
 Default opening contact stiffness OPSF will be used.
 Default tangent stiffness factor FKT          1.0000    
 Use constant contact stiffness
 Default Max. friction stress TAUMAX          0.10000E+21
 Average contact surface length               0.73908E-02
 Average contact pair depth                   0.11147E-01
 Default pinball region factor PINB           0.25000    
 The resulting pinball region                 0.27869E-02
 Initial penetration/gap is excluded.
 Bonded contact (always) is defined.

 *** NOTE ***                            CP =       0.343   TIME= 15:46:55
 Max.  Initial penetration 4.33680869E-19 was detected between contact   
 element 1648 and target element 1659.                                   
 ****************************************
  

 *** NOTE ***                            CP =       0.343   TIME= 15:46:55
 Symmetric Deformable- deformable contact pair identified by real        
 constant set 21 and contact element type 20 has been set up.  The       
 companion pair has real constant set ID 20.  Both pairs should have     
 the same behavior.                                                      
 ANSYS will deactivate the current pair and keep its companion pair,     
 resulting in asymmetric contact.                                        
 Linear contact is defined
 Contact algorithm: Augmented Lagrange method
 Contact detection at: Gauss integration point
 Contact stiffness factor FKN                  10.000    
 The resulting initial contact stiffness      0.35883E+16
 Default penetration tolerance factor FTOLN   0.10000    
 The resulting penetration tolerance          0.64028E-03
 Default opening contact stiffness OPSF will be used.
 Default tangent stiffness factor FKT          1.0000    
 Use constant contact stiffness
 Default Max. friction stress TAUMAX          0.10000E+21
 Average contact surface length               0.21343E-01
 Average contact pair depth                   0.64028E-02
 Default pinball region factor PINB           0.25000    
 The resulting pinball region                 0.16007E-02
 Initial penetration/gap is excluded.
 Bonded contact (always) is defined.

 *** NOTE ***                            CP =       0.343   TIME= 15:46:55
 No contact was detected for this contact pair.                          
 ****************************************
  

 *** NOTE ***                            CP =       0.343   TIME= 15:46:55
 Symmetric Deformable- deformable contact pair identified by real        
 constant set 22 and contact element type 22 has been set up.  The       
 companion pair has real constant set ID 23.  Both pairs should have     
 the same behavior.                                                      
 ANSYS will keep the current pair and deactivate its companion pair,     
 resulting in asymmetric contact.                                        
 Linear contact is defined
 Contact algorithm: Augmented Lagrange method
 Contact detection at: Gauss integration point
 Contact stiffness factor FKN                  10.000    
 The resulting initial contact stiffness      0.71843E+16
 Default penetration tolerance factor FTOLN   0.10000    
 The resulting penetration tolerance          0.31750E-03
 Default opening contact stiffness OPSF will be used.
 Default tangent stiffness factor FKT          1.0000    
 Use constant contact stiffness
 Default Max. friction stress TAUMAX          0.10000E+21
 Average contact surface length               0.29857E-02
 Average contact pair depth                   0.31750E-02
 Default pinball region factor PINB           0.25000    
 The resulting pinball region                 0.79375E-03
 Initial penetration/gap is excluded.
 Bonded contact (always) is defined.

 *** NOTE ***                            CP =       0.343   TIME= 15:46:55
 Max.  Initial penetration 5.551115123E-17 was detected between contact  
 element 1697 and target element 1765.                                   
 ****************************************
  

 *** NOTE ***                            CP =       0.343   TIME= 15:46:55
 Symmetric Deformable- deformable contact pair identified by real        
 constant set 23 and contact element type 22 has been set up.  The       
 companion pair has real constant set ID 22.  Both pairs should have     
 the same behavior.                                                      
 ANSYS will deactivate the current pair and keep its companion pair,     
 resulting in asymmetric contact.                                        
 Linear contact is defined
 Contact algorithm: Augmented Lagrange method
 Contact detection at: Gauss integration point
 Contact stiffness factor FKN                  10.000    
 The resulting initial contact stiffness      0.71843E+16
 Default penetration tolerance factor FTOLN   0.10000    
 The resulting penetration tolerance          0.31750E-03
 Default opening contact stiffness OPSF will be used.
 Default tangent stiffness factor FKT          1.0000    
 Use constant contact stiffness
 Default Max. friction stress TAUMAX          0.10000E+21
 Average contact surface length               0.32644E-02
 Average contact pair depth                   0.31750E-02
 Default pinball region factor PINB           0.25000    
 The resulting pinball region                 0.79375E-03
 Initial penetration/gap is excluded.
 Bonded contact (always) is defined.

 *** NOTE ***                            CP =       0.343   TIME= 15:46:55
 Max.  Initial penetration 5.551115123E-17 was detected between contact  
 element 1729 and target element 1661.                                   
 ****************************************
  

 *** NOTE ***                            CP =       0.343   TIME= 15:46:55
 Symmetric Deformable- deformable contact pair identified by real        
 constant set 24 and contact element type 24 has been set up.  The       
 companion pair has real constant set ID 25.  Both pairs should have     
 the same behavior.                                                      
 ANSYS will keep the current pair and deactivate its companion pair,     
 resulting in asymmetric contact.                                        
 Linear contact is defined
 Contact algorithm: Augmented Lagrange method
 Contact detection at: Gauss integration point
 Contact stiffness factor FKN                  10.000    
 The resulting initial contact stiffness      0.64000E+16
 Default penetration tolerance factor FTOLN   0.10000    
 The resulting penetration tolerance          0.31750E-03
 Default opening contact stiffness OPSF will be used.
 Default tangent stiffness factor FKT          1.0000    
 Use constant contact stiffness
 Default Max. friction stress TAUMAX          0.10000E+21
 Average contact surface length               0.29857E-02
 Average contact pair depth                   0.31750E-02
 Default pinball region factor PINB           0.25000    
 The resulting pinball region                 0.79375E-03
 Initial penetration/gap is excluded.
 Bonded contact (always) is defined.

 *** NOTE ***                            CP =       0.343   TIME= 15:46:55
 Max.  Initial penetration 5.551115123E-17 was detected between contact  
 element 1831 and target element 1884.                                   
 ****************************************
  

 *** NOTE ***                            CP =       0.343   TIME= 15:46:55
 Symmetric Deformable- deformable contact pair identified by real        
 constant set 25 and contact element type 24 has been set up.  The       
 companion pair has real constant set ID 24.  Both pairs should have     
 the same behavior.                                                      
 ANSYS will deactivate the current pair and keep its companion pair,     
 resulting in asymmetric contact.                                        
 Linear contact is defined
 Contact algorithm: Augmented Lagrange method
 Contact detection at: Gauss integration point
 Contact stiffness factor FKN                  10.000    
 The resulting initial contact stiffness      0.64000E+16
 Default penetration tolerance factor FTOLN   0.10000    
 The resulting penetration tolerance          0.62500E-03
 Default opening contact stiffness OPSF will be used.
 Default tangent stiffness factor FKT          1.0000    
 Use constant contact stiffness
 Default Max. friction stress TAUMAX          0.10000E+21
 Average contact surface length               0.61619E-02
 Average contact pair depth                   0.62500E-02
 Default pinball region factor PINB           0.25000    
 The resulting pinball region                 0.15625E-02
 Initial penetration/gap is excluded.
 Bonded contact (always) is defined.

 *** NOTE ***                            CP =       0.343   TIME= 15:46:55
 Max.  Initial penetration 5.551115123E-17 was detected between contact  
 element 1866 and target element 1816.                                   
 ****************************************
  
  
  

  
  
     D I S T R I B U T E D   D O M A I N   D E C O M P O S E R
  
  ...Number of elements: 1884
  ...Number of nodes:    4977
  ...Decompose to 2 CPU domains
  ...Element load balance ratio =     1.019


                      L O A D   S T E P   O P T I O N S

   LOAD STEP NUMBER. . . . . . . . . . . . . . . .     1
   THERMAL STRAINS INCLUDED IN THE LOAD VECTOR . .   YES
   PRINT OUTPUT CONTROLS . . . . . . . . . . . . .NO PRINTOUT
   DATABASE OUTPUT CONTROLS
      ITEM     FREQUENCY   COMPONENT
       ALL       NONE               
      NSOL        ALL               


 *** NOTE ***                            CP =       0.374   TIME= 15:46:55
 Symmetric Deformable- deformable contact pair identified by real        
 constant set 10 and contact element type 10 has been set up.  The       
 companion pair has real constant set ID 11.  Both pairs should have     
 the same behavior.                                                      
 ANSYS will deactivate the current pair and keep its companion pair,     
 resulting in asymmetric contact.                                        
 Linear contact is defined
 Contact algorithm: Augmented Lagrange method
 Contact detection at: Gauss integration point
 Contact stiffness factor FKN                  10.000    
 The resulting initial contact stiffness      0.62119E+16
 Default penetration tolerance factor FTOLN   0.10000    
 The resulting penetration tolerance          0.64392E-03
 Default opening contact stiffness OPSF will be used.
 Default tangent stiffness factor FKT          1.0000    
 Use constant contact stiffness
 Default Max. friction stress TAUMAX          0.10000E+21
 Average contact surface length               0.12983E-01
 Average contact pair depth                   0.64392E-02
 Default pinball region factor PINB           0.25000    
 The resulting pinball region                 0.16098E-02
 Initial penetration/gap is excluded.
 Bonded contact (always) is defined.

 *** NOTE ***                            CP =       0.374   TIME= 15:46:55
 Max.  Initial penetration 5.551115123E-17 was detected between contact  
 element 1223 and target element 1280.                                   
 ****************************************
  

 *** NOTE ***                            CP =       0.374   TIME= 15:46:55
 Symmetric Deformable- deformable contact pair identified by real        
 constant set 11 and contact element type 10 has been set up.  The       
 companion pair has real constant set ID 10.  Both pairs should have     
 the same behavior.                                                      
 ANSYS will keep the current pair and deactivate its companion pair,     
 resulting in asymmetric contact.                                        
 Linear contact is defined
 Contact algorithm: Augmented Lagrange method
 Contact detection at: Gauss integration point
 Contact stiffness factor FKN                  10.000    
 The resulting initial contact stiffness      0.62119E+16
 Default penetration tolerance factor FTOLN   0.10000    
 The resulting penetration tolerance          0.31750E-03
 Default opening contact stiffness OPSF will be used.
 Default tangent stiffness factor FKT          1.0000    
 Use constant contact stiffness
 Default Max. friction stress TAUMAX          0.10000E+21
 Average contact surface length               0.32644E-02
 Average contact pair depth                   0.31750E-02
 Default pinball region factor PINB           0.25000    
 The resulting pinball region                 0.79375E-03
 Initial penetration/gap is excluded.
 Bonded contact (always) is defined.

 *** NOTE ***                            CP =       0.374   TIME= 15:46:55
 Max.  Initial penetration 5.551115123E-17 was detected between contact  
 element 1233 and target element 1217.                                   
 ****************************************
  

 *** NOTE ***                            CP =       0.374   TIME= 15:46:55
 Symmetric Deformable- deformable contact pair identified by real        
 constant set 12 and contact element type 12 has been set up.  The       
 companion pair has real constant set ID 13.  Both pairs should have     
 the same behavior.                                                      
 ANSYS will keep the current pair and deactivate its companion pair,     
 resulting in asymmetric contact.                                        
 Linear contact is defined
 Contact algorithm: Augmented Lagrange method
 Contact detection at: Gauss integration point
 Contact stiffness factor FKN                  10.000    
 The resulting initial contact stiffness      0.34344E+16
 Default penetration tolerance factor FTOLN   0.10000    
 The resulting penetration tolerance          0.11647E-02
 Default opening contact stiffness OPSF will be used.
 Default tangent stiffness factor FKT          1.0000    
 Use constant contact stiffness
 Default Max. friction stress TAUMAX          0.10000E+21
 Average contact surface length               0.73908E-02
 Average contact pair depth                   0.11647E-01
 Default pinball region factor PINB           0.25000    
 The resulting pinball region                 0.29117E-02
 Initial penetration/gap is excluded.
 Bonded contact (always) is defined.

 *** NOTE ***                            CP =       0.374   TIME= 15:46:55
 Max.  Initial penetration 4.33680869E-19 was detected between contact   
 element 1319 and target element 1324.                                   
 ****************************************
  

 *** NOTE ***                            CP =       0.374   TIME= 15:46:55
 Symmetric Deformable- deformable contact pair identified by real        
 constant set 13 and contact element type 12 has been set up.  The       
 companion pair has real constant set ID 12.  Both pairs should have     
 the same behavior.                                                      
 ANSYS will deactivate the current pair and keep its companion pair,     
 resulting in asymmetric contact.                                        
 Linear contact is defined
 Contact algorithm: Augmented Lagrange method
 Contact detection at: Gauss integration point
 Contact stiffness factor FKN                  10.000    
 The resulting initial contact stiffness      0.34344E+16
 Default penetration tolerance factor FTOLN   0.10000    
 The resulting penetration tolerance          0.64028E-03
 Default opening contact stiffness OPSF will be used.
 Default tangent stiffness factor FKT          1.0000    
 Use constant contact stiffness
 Default Max. friction stress TAUMAX          0.10000E+21
 Average contact surface length               0.21343E-01
 Average contact pair depth                   0.64028E-02
 Default pinball region factor PINB           0.25000    
 The resulting pinball region                 0.16007E-02
 Initial penetration/gap is excluded.
 Bonded contact (always) is defined.

 *** NOTE ***                            CP =       0.374   TIME= 15:46:55
 No contact was detected for this contact pair.                          
 ****************************************
  

 *** NOTE ***                            CP =       0.374   TIME= 15:46:55
 Symmetric Deformable- deformable contact pair identified by real        
 constant set 16 and contact element type 16 has been set up.  The       
 companion pair has real constant set ID 17.  Both pairs should have     
 the same behavior.                                                      
 ANSYS will keep the current pair and deactivate its companion pair,     
 resulting in asymmetric contact.                                        
 Linear contact is defined
 Contact algorithm: Augmented Lagrange method
 Contact detection at: Gauss integration point
 Contact stiffness factor FKN                  10.000    
 The resulting initial contact stiffness      0.64000E+16
 Default penetration tolerance factor FTOLN   0.10000    
 The resulting penetration tolerance          0.31750E-03
 Default opening contact stiffness OPSF will be used.
 Default tangent stiffness factor FKT          1.0000    
 Use constant contact stiffness
 Default Max. friction stress TAUMAX          0.10000E+21
 Average contact surface length               0.29857E-02
 Average contact pair depth                   0.31750E-02
 Default pinball region factor PINB           0.25000    
 The resulting pinball region                 0.79375E-03
 Initial penetration/gap is excluded.
 Bonded contact (always) is defined.

 *** NOTE ***                            CP =       0.374   TIME= 15:46:55
 Max.  Initial penetration 5.551115123E-17 was detected between contact  
 element 1497 and target element 1544.                                   
 ****************************************
  

 *** NOTE ***                            CP =       0.374   TIME= 15:46:55
 Symmetric Deformable- deformable contact pair identified by real        
 constant set 17 and contact element type 16 has been set up.  The       
 companion pair has real constant set ID 16.  Both pairs should have     
 the same behavior.                                                      
 ANSYS will deactivate the current pair and keep its companion pair,     
 resulting in asymmetric contact.                                        
 Linear contact is defined
 Contact algorithm: Augmented Lagrange method
 Contact detection at: Gauss integration point
 Contact stiffness factor FKN                  10.000    
 The resulting initial contact stiffness      0.64000E+16
 Default penetration tolerance factor FTOLN   0.10000    
 The resulting penetration tolerance          0.62500E-03
 Default opening contact stiffness OPSF will be used.
 Default tangent stiffness factor FKT          1.0000    
 Use constant contact stiffness
 Default Max. friction stress TAUMAX          0.10000E+21
 Average contact surface length               0.61619E-02
 Average contact pair depth                   0.62500E-02
 Default pinball region factor PINB           0.25000    
 The resulting pinball region                 0.15625E-02
 Initial penetration/gap is excluded.
 Bonded contact (always) is defined.

 *** NOTE ***                            CP =       0.374   TIME= 15:46:55
 Max.  Initial penetration 1.110223025E-16 was detected between contact  
 element 1539 and target element 1495.                                   
 ****************************************
  

 *** NOTE ***                            CP =       0.374   TIME= 15:46:55
 Symmetric Deformable- deformable contact pair identified by real        
 constant set 20 and contact element type 20 has been set up.  The       
 companion pair has real constant set ID 21.  Both pairs should have     
 the same behavior.                                                      
 ANSYS will keep the current pair and deactivate its companion pair,     
 resulting in asymmetric contact.                                        
 Linear contact is defined
 Contact algorithm: Augmented Lagrange method
 Contact detection at: Gauss integration point
 Contact stiffness factor FKN                  10.000    
 The resulting initial contact stiffness      0.35883E+16
 Default penetration tolerance factor FTOLN   0.10000    
 The resulting penetration tolerance          0.11147E-02
 Default opening contact stiffness OPSF will be used.
 Default tangent stiffness factor FKT          1.0000    
 Use constant contact stiffness
 Default Max. friction stress TAUMAX          0.10000E+21
 Average contact surface length               0.73908E-02
 Average contact pair depth                   0.11147E-01
 Default pinball region factor PINB           0.25000    
 The resulting pinball region                 0.27869E-02
 Initial penetration/gap is excluded.
 Bonded contact (always) is defined.

 *** NOTE ***                            CP =       0.374   TIME= 15:46:55
 Max.  Initial penetration 4.33680869E-19 was detected between contact   
 element 1648 and target element 1659.                                   
 ****************************************
  

 *** NOTE ***                            CP =       0.374   TIME= 15:46:55
 Symmetric Deformable- deformable contact pair identified by real        
 constant set 21 and contact element type 20 has been set up.  The       
 companion pair has real constant set ID 20.  Both pairs should have     
 the same behavior.                                                      
 ANSYS will deactivate the current pair and keep its companion pair,     
 resulting in asymmetric contact.                                        
 Linear contact is defined
 Contact algorithm: Augmented Lagrange method
 Contact detection at: Gauss integration point
 Contact stiffness factor FKN                  10.000    
 The resulting initial contact stiffness      0.35883E+16
 Default penetration tolerance factor FTOLN   0.10000    
 The resulting penetration tolerance          0.64028E-03
 Default opening contact stiffness OPSF will be used.
 Default tangent stiffness factor FKT          1.0000    
 Use constant contact stiffness
 Default Max. friction stress TAUMAX          0.10000E+21
 Average contact surface length               0.21343E-01
 Average contact pair depth                   0.64028E-02
 Default pinball region factor PINB           0.25000    
 The resulting pinball region                 0.16007E-02
 Initial penetration/gap is excluded.
 Bonded contact (always) is defined.

 *** NOTE ***                            CP =       0.374   TIME= 15:46:55
 No contact was detected for this contact pair.                          
 ****************************************
  

 *** NOTE ***                            CP =       0.374   TIME= 15:46:55
 Symmetric Deformable- deformable contact pair identified by real        
 constant set 24 and contact element type 24 has been set up.  The       
 companion pair has real constant set ID 25.  Both pairs should have     
 the same behavior.                                                      
 ANSYS will keep the current pair and deactivate its companion pair,     
 resulting in asymmetric contact.                                        
 Linear contact is defined
 Contact algorithm: Augmented Lagrange method
 Contact detection at: Gauss integration point
 Contact stiffness factor FKN                  10.000    
 The resulting initial contact stiffness      0.64000E+16
 Default penetration tolerance factor FTOLN   0.10000    
 The resulting penetration tolerance          0.31750E-03
 Default opening contact stiffness OPSF will be used.
 Default tangent stiffness factor FKT          1.0000    
 Use constant contact stiffness
 Default Max. friction stress TAUMAX          0.10000E+21
 Average contact surface length               0.29857E-02
 Average contact pair depth                   0.31750E-02
 Default pinball region factor PINB           0.25000    
 The resulting pinball region                 0.79375E-03
 Initial penetration/gap is excluded.
 Bonded contact (always) is defined.

 *** NOTE ***                            CP =       0.374   TIME= 15:46:55
 Max.  Initial penetration 5.551115123E-17 was detected between contact  
 element 1831 and target element 1884.                                   
 ****************************************
  

 *** NOTE ***                            CP =       0.374   TIME= 15:46:55
 Symmetric Deformable- deformable contact pair identified by real        
 constant set 25 and contact element type 24 has been set up.  The       
 companion pair has real constant set ID 24.  Both pairs should have     
 the same behavior.                                                      
 ANSYS will deactivate the current pair and keep its companion pair,     
 resulting in asymmetric contact.                                        
 Linear contact is defined
 Contact algorithm: Augmented Lagrange method
 Contact detection at: Gauss integration point
 Contact stiffness factor FKN                  10.000    
 The resulting initial contact stiffness      0.64000E+16
 Default penetration tolerance factor FTOLN   0.10000    
 The resulting penetration tolerance          0.62500E-03
 Default opening contact stiffness OPSF will be used.
 Default tangent stiffness factor FKT          1.0000    
 Use constant contact stiffness
 Default Max. friction stress TAUMAX          0.10000E+21
 Average contact surface length               0.61619E-02
 Average contact pair depth                   0.62500E-02
 Default pinball region factor PINB           0.25000    
 The resulting pinball region                 0.15625E-02
 Initial penetration/gap is excluded.
 Bonded contact (always) is defined.

 *** NOTE ***                            CP =       0.374   TIME= 15:46:55
 Max.  Initial penetration 5.551115123E-17 was detected between contact  
 element 1866 and target element 1816.                                   
 ****************************************
  

 *** WARNING ***                         CP =       0.437   TIME= 15:46:55
 The modal analysis has non-zero displacements defined, which will cause 
 a load vector to be generated.  The load vector may be used by the      
 mode superposition analyses.  This feature is not documented.           


                         ***********  PRECISE MASS SUMMARY  ***********

   TOTAL RIGID BODY MASS MATRIX ABOUT ORIGIN
               Translational mass               |   Coupled translational/rotational mass
         3.3301        0.0000        0.0000     |     0.0000      -0.43715      -0.14321E-02
         0.0000        3.3301        0.0000     |    0.43715        0.0000      -0.14157    
         0.0000        0.0000        3.3301     |    0.14321E-02   0.14157        0.0000    
     ------------------------------------------ | ------------------------------------------
                                                |         Rotational mass (inertia)
                                                |    0.90476E-01   0.60874E-04  -0.18581E-01
                                                |    0.60874E-04   0.19351       0.18795E-03
                                                |   -0.18581E-01   0.18795E-03   0.10396    

   TOTAL MASS =  3.3301    
     The mass principal axes coincide with the global Cartesian axes

   CENTER OF MASS (X,Y,Z)=  -0.42512E-01   0.43005E-03  -0.13127    

   TOTAL INERTIA ABOUT CENTER OF MASS
        0.33091E-01  -0.86469E-08   0.37503E-05
       -0.86469E-08   0.13010      -0.45426E-07
        0.37503E-05  -0.45426E-07   0.97939E-01
     The inertia principal axes coincide with the global Cartesian axes


  *** MASS SUMMARY BY ELEMENT TYPE ***

  TYPE      MASS
     1   1.28479    
     2  0.149614E-01
     3  0.149614E-01
     4  0.123268    
     5   1.28479    
     6  0.149614E-01
     7  0.149614E-01
     8  0.123268    
     9  0.454162    

 Range of element maximum matrix coefficients in global coordinates
 Maximum = 4.812501158E+10 at element 1581.                              
 Minimum = 227700054 at element 466.                                     

   *** ELEMENT MATRIX FORMULATION TIMES
     TYPE    NUMBER   ENAME      TOTAL CP  AVE CP

        1       366  SOLID187      0.000   0.000000
        2        68  SOLID226      0.016   0.000229
        3        68  SOLID186      0.000   0.000000
        4        80  SOLID186      0.031   0.000390
        5       367  SOLID187      0.000   0.000000
        6        68  SOLID186      0.000   0.000000
        7        68  SOLID186      0.000   0.000000
        8        80  SOLID186      0.016   0.000195
        9        51  SOLID186      0.000   0.000000
       10        40  CONTA174      0.062   0.001560
       11        40  TARGE170      0.000   0.000000
       12        15  CONTA174      0.000   0.000000
       13        15  TARGE170      0.000   0.000000
       14        68  CONTA174      0.000   0.000000
       15        68  TARGE170      0.000   0.000000
       16        44  CONTA174      0.000   0.000000
       17        44  TARGE170      0.000   0.000000
       18        40  CONTA174      0.000   0.000000
       19        40  TARGE170      0.000   0.000000
       20        15  CONTA174      0.000   0.000000
       21        15  TARGE170      0.000   0.000000
       22        68  CONTA174      0.000   0.000000
       23        68  TARGE170      0.000   0.000000
       24        44  CONTA174      0.062   0.001418
       25        44  TARGE170      0.000   0.000000
 Time at end of element matrix formulation CP = 0.655204177.             

  BLOCK LANCZOS CALCULATION OF UP TO   12 EIGENVECTORS.
  NUMBER OF EQUATIONS              =        14894
  MAXIMUM WAVEFRONT                =          340
  MAXIMUM MODES STORED             =           12
  MINIMUM EIGENVALUE               =  0.20000E+05
  MAXIMUM EIGENVALUE               =  0.22000E+05


  Local memory allocated for solver              =     25.234 MB
  Local memory required for in-core solution     =     24.049 MB
  Local memory required for out-of-core solution =     12.396 MB

  Total memory allocated for solver              =     58.693 MB
  Total memory required for in-core solution     =     55.945 MB
  Total memory required for out-of-core solution =     28.194 MB

 *** NOTE ***                            CP =       0.889   TIME= 15:46:55
 The Distributed Sparse Matrix Solver used by the Block Lanczos          
 eigensolver is currently running in the in-core memory mode.  This      
 memory mode uses the most amount of memory in order to avoid using the  
 hard drive as much as possible, which most often results in the         
 fastest solution time.  This mode is recommended if enough physical     
 memory is present to accommodate all of the solver data.                

 *** ANSYS - ENGINEERING ANALYSIS SYSTEM  RELEASE Release 19.2     19.2     ***
 DISTRIBUTED ANSYS Academic Teaching Introductory              

 01055371  VERSION=WINDOWS x64   15:46:56  JAN 27, 2019 CP=      1.357

 DISPOSITIVO--Modal (A5)                                                       



 *** FREQUENCIES FROM BLOCK LANCZOS ITERATION ***

  MODE    FREQUENCY (HERTZ)      



   FREQUENCY RANGE REQUESTED=   20000.0       22000.0    
    1     20062.86302302    
    2     20836.18807644    
    3     20879.40494963    
    4     21279.77023719    
    5     21605.74550497    
    6     21749.75405428    
    7     21777.47841668    
    8     21818.58084030    
    9     21819.51645983    
   10     21826.84884650    
   11     21868.78473746    
   12     21890.33451949    

 *** ANSYS - ENGINEERING ANALYSIS SYSTEM  RELEASE Release 19.2     19.2     ***
 DISTRIBUTED ANSYS Academic Teaching Introductory              

 01055371  VERSION=WINDOWS x64   15:46:56  JAN 27, 2019 CP=      1.373

 DISPOSITIVO--Modal (A5)                                                       





          ***** PARTICIPATION FACTOR CALCULATION *****  X  DIRECTION
                                                                                  CUMULATIVE     RATIO EFF.MASS
  MODE   FREQUENCY       PERIOD      PARTIC.FACTOR     RATIO    EFFECTIVE MASS   MASS FRACTION   TO TOTAL MASS
     1     20062.9       0.49843E-04    0.0000        0.000000     0.00000         0.00000         0.00000    
     2     20836.2       0.47993E-04    0.0000        0.000000     0.00000         0.00000         0.00000    
     3     20879.4       0.47894E-04    0.0000        0.000000     0.00000         0.00000         0.00000    
     4     21279.8       0.46993E-04    0.0000        0.000000     0.00000         0.00000         0.00000    
     5     21605.7       0.46284E-04    0.0000        0.000000     0.00000         0.00000         0.00000    
     6     21749.8       0.45978E-04  -0.99023E-01    0.983063    0.980558E-02    0.479358        0.294451E-02
     7     21777.5       0.45919E-04  -0.10073        1.000000    0.101464E-01    0.975377        0.304685E-02
     8     21818.6       0.45832E-04  -0.17491E-02    0.017364    0.305922E-05    0.975526        0.918653E-06
     9     21819.5       0.45831E-04  -0.13503E-01    0.134050    0.182323E-03    0.984439        0.547497E-04
    10     21826.8       0.45815E-04    0.0000        0.000000     0.00000        0.984439         0.00000    
    11     21868.8       0.45727E-04   0.15751E-01    0.156369    0.248090E-03    0.996567        0.744989E-04
    12     21890.3       0.45682E-04   0.83795E-02    0.083188    0.702156E-04     1.00000        0.210850E-04
 -----------------------------------------------------------------------------------------------------------------
   sum                                                            0.204556E-01                    0.614261E-02
 -----------------------------------------------------------------------------------------------------------------



          ***** PARTICIPATION FACTOR CALCULATION *****  Y  DIRECTION
                                                                                  CUMULATIVE     RATIO EFF.MASS
  MODE   FREQUENCY       PERIOD      PARTIC.FACTOR     RATIO    EFFECTIVE MASS   MASS FRACTION   TO TOTAL MASS
     1     20062.9       0.49843E-04    0.0000        0.000000     0.00000         0.00000         0.00000    
     2     20836.2       0.47993E-04    0.0000        0.000000     0.00000         0.00000         0.00000    
     3     20879.4       0.47894E-04    0.0000        0.000000     0.00000         0.00000         0.00000    
     4     21279.8       0.46993E-04    0.0000        0.000000     0.00000         0.00000         0.00000    
     5     21605.7       0.46284E-04    0.0000        0.000000     0.00000         0.00000         0.00000    
     6     21749.8       0.45978E-04   0.16306E-01    0.162277    0.265901E-03    0.129530E-01    0.798473E-04
     7     21777.5       0.45919E-04   0.88948E-02    0.088519    0.791175E-04    0.168071E-01    0.237582E-04
     8     21818.6       0.45832E-04   0.84100E-02    0.083694    0.707275E-04    0.202525E-01    0.212387E-04
     9     21819.5       0.45831E-04   0.21950E-03    0.002184    0.481822E-07    0.202549E-01    0.144686E-07
    10     21826.8       0.45815E-04    0.0000        0.000000     0.00000        0.202549E-01     0.00000    
    11     21868.8       0.45727E-04   0.10008        0.995920    0.100150E-01    0.508125        0.300741E-02
    12     21890.3       0.45682E-04   0.10049        1.000000    0.100973E-01     1.00000        0.303210E-02
 -----------------------------------------------------------------------------------------------------------------
   sum                                                            0.205281E-01                    0.616438E-02
 -----------------------------------------------------------------------------------------------------------------



          ***** PARTICIPATION FACTOR CALCULATION *****  Z  DIRECTION
                                                                                  CUMULATIVE     RATIO EFF.MASS
  MODE   FREQUENCY       PERIOD      PARTIC.FACTOR     RATIO    EFFECTIVE MASS   MASS FRACTION   TO TOTAL MASS
     1     20062.9       0.49843E-04    0.0000        0.000000     0.00000         0.00000         0.00000    
     2     20836.2       0.47993E-04    0.0000        0.000000     0.00000         0.00000         0.00000    
     3     20879.4       0.47894E-04    0.0000        0.000000     0.00000         0.00000         0.00000    
     4     21279.8       0.46993E-04    0.0000        0.000000     0.00000         0.00000         0.00000    
     5     21605.7       0.46284E-04    0.0000        0.000000     0.00000         0.00000         0.00000    
     6     21749.8       0.45978E-04   0.11097E-02    0.915225    0.123133E-05    0.427097        0.369757E-06
     7     21777.5       0.45919E-04   0.12124E-02    1.000000    0.147001E-05    0.936981        0.441429E-06
     8     21818.6       0.45832E-04   0.22442E-03    0.185100    0.503654E-07    0.954450        0.151242E-07
     9     21819.5       0.45831E-04   0.36047E-03    0.297306    0.129935E-06    0.999519        0.390182E-07
    10     21826.8       0.45815E-04    0.0000        0.000000     0.00000        0.999519         0.00000    
    11     21868.8       0.45727E-04  -0.28289E-04    0.023332    0.800259E-09    0.999797        0.240309E-09
    12     21890.3       0.45682E-04  -0.24199E-04    0.019959    0.585596E-09     1.00000        0.175848E-09
 -----------------------------------------------------------------------------------------------------------------
   sum                                                            0.288303E-05                    0.865744E-06
 -----------------------------------------------------------------------------------------------------------------



          ***** PARTICIPATION FACTOR CALCULATION *****ROTX DIRECTION
                                                                                  CUMULATIVE     RATIO EFF.MASS
  MODE   FREQUENCY       PERIOD      PARTIC.FACTOR     RATIO    EFFECTIVE MASS   MASS FRACTION   TO TOTAL MASS
     1     20062.9       0.49843E-04    0.0000        0.000000     0.00000         0.00000         0.00000    
     2     20836.2       0.47993E-04    0.0000        0.000000     0.00000         0.00000         0.00000    
     3     20879.4       0.47894E-04    0.0000        0.000000     0.00000         0.00000         0.00000    
     4     21279.8       0.46993E-04    0.0000        0.000000     0.00000         0.00000         0.00000    
     5     21605.7       0.46284E-04    0.0000        0.000000     0.00000         0.00000         0.00000    
     6     21749.8       0.45978E-04   0.56746E-02    0.162357    0.322006E-04    0.129658E-01    0.355901E-03
     7     21777.5       0.45919E-04   0.30972E-02    0.088615    0.959269E-05    0.168284E-01    0.106024E-03
     8     21818.6       0.45832E-04   0.29252E-02    0.083693    0.855661E-05    0.202738E-01    0.945729E-04
     9     21819.5       0.45831E-04   0.76979E-04    0.002202    0.592579E-08    0.202762E-01    0.654955E-07
    10     21826.8       0.45815E-04    0.0000        0.000000     0.00000        0.202762E-01     0.00000    
    11     21868.8       0.45727E-04   0.34807E-01    0.995888    0.121156E-02    0.508120        0.133909E-01
    12     21890.3       0.45682E-04   0.34951E-01    1.000000    0.122158E-02     1.00000        0.135017E-01
 -----------------------------------------------------------------------------------------------------------------
   sum                                                            0.248350E-02                    0.274491E-01
 -----------------------------------------------------------------------------------------------------------------



          ***** PARTICIPATION FACTOR CALCULATION *****ROTY DIRECTION
                                                                                  CUMULATIVE     RATIO EFF.MASS
  MODE   FREQUENCY       PERIOD      PARTIC.FACTOR     RATIO    EFFECTIVE MASS   MASS FRACTION   TO TOTAL MASS
     1     20062.9       0.49843E-04    0.0000        0.000000     0.00000         0.00000         0.00000    
     2     20836.2       0.47993E-04    0.0000        0.000000     0.00000         0.00000         0.00000    
     3     20879.4       0.47894E-04    0.0000        0.000000     0.00000         0.00000         0.00000    
     4     21279.8       0.46993E-04    0.0000        0.000000     0.00000         0.00000         0.00000    
     5     21605.7       0.46284E-04    0.0000        0.000000     0.00000         0.00000         0.00000    
     6     21749.8       0.45978E-04   0.34289E-01    0.971294    0.117574E-02    0.473615        0.607589E-02
     7     21777.5       0.45919E-04   0.35302E-01    1.000000    0.124626E-02    0.975638        0.644034E-02
     8     21818.6       0.45832E-04   0.65820E-03    0.018644    0.433222E-06    0.975812        0.223877E-05
     9     21819.5       0.45831E-04   0.46474E-02    0.131645    0.215984E-04    0.984512        0.111614E-03
    10     21826.8       0.45815E-04    0.0000        0.000000     0.00000        0.984512         0.00000    
    11     21868.8       0.45727E-04  -0.54717E-02    0.154995    0.299395E-04    0.996573        0.154719E-03
    12     21890.3       0.45682E-04  -0.29169E-02    0.082625    0.850816E-05     1.00000        0.439679E-04
 -----------------------------------------------------------------------------------------------------------------
   sum                                                            0.248248E-02                    0.128288E-01
 -----------------------------------------------------------------------------------------------------------------



          ***** PARTICIPATION FACTOR CALCULATION *****ROTZ DIRECTION
                                                                                  CUMULATIVE     RATIO EFF.MASS
  MODE   FREQUENCY       PERIOD      PARTIC.FACTOR     RATIO    EFFECTIVE MASS   MASS FRACTION   TO TOTAL MASS
     1     20062.9       0.49843E-04    0.0000        0.000000     0.00000         0.00000         0.00000    
     2     20836.2       0.47993E-04    0.0000        0.000000     0.00000         0.00000         0.00000    
     3     20879.4       0.47894E-04    0.0000        0.000000     0.00000         0.00000         0.00000    
     4     21279.8       0.46993E-04    0.0000        0.000000     0.00000         0.00000         0.00000    
     5     21605.7       0.46284E-04    0.0000        0.000000     0.00000         0.00000         0.00000    
     6     21749.8       0.45978E-04   0.21356E-02    0.095751    0.456076E-05    0.657691E-02    0.438711E-04
     7     21777.5       0.45919E-04  -0.19419E-02    0.087066    0.377093E-05    0.120148E-01    0.362736E-04
     8     21818.6       0.45832E-04  -0.87001E-03    0.039008    0.756923E-06    0.131064E-01    0.728104E-05
     9     21819.5       0.45831E-04   0.10196E-02    0.045715    0.103960E-05    0.146055E-01    0.100001E-04
    10     21826.8       0.45815E-04    0.0000        0.000000     0.00000        0.146055E-01     0.00000    
    11     21868.8       0.45727E-04   0.13633E-01    0.611265    0.185870E-03    0.282643        0.178793E-02
    12     21890.3       0.45682E-04  -0.22304E-01    1.000000    0.497451E-03     1.00000        0.478511E-02
 -----------------------------------------------------------------------------------------------------------------
   sum                                                            0.693450E-03                    0.667047E-02
 -----------------------------------------------------------------------------------------------------------------





 *** NOTE ***                            CP =       1.373   TIME= 15:46:56
 The modes requested are mass normalized (Nrmkey on MODOPT).  However,   
 the modal masses and kinetic energies below are calculated with unit    
 normalized modes.                                                       

        ***** MODAL MASSES, KINETIC ENERGIES, AND TRANSLATIONAL EFFECTIVE MASSES SUMMARY *****

                                                                         EFFECTIVE MASS
  MODE  FREQUENCY   MODAL MASS     KENE      |      X-DIR      RATIO%   Y-DIR      RATIO%   Z-DIR      RATIO% 
     1  0.2006E+05  0.4309E-01  0.3423E+09   |     0.000        0.00   0.000        0.00   0.000        0.00
     2  0.2084E+05  0.4335E-01  0.3715E+09   |     0.000        0.00   0.000        0.00   0.000        0.00
     3  0.2088E+05  0.5790E-01  0.4983E+09   |     0.000        0.00   0.000        0.00   0.000        0.00
     4  0.2128E+05  0.6007E-01  0.5370E+09   |     0.000        0.00   0.000        0.00   0.000        0.00
     5  0.2161E+05  0.3715E-01  0.3423E+09   |     0.000        0.00   0.000        0.00   0.000        0.00
     6  0.2175E+05  0.1104E-15  0.1030E-05   |    0.9806E-02    0.29  0.2659E-03    0.01  0.1231E-05    0.00
     7  0.2178E+05  0.1344      0.1258E+10   |    0.1015E-01    0.30  0.7912E-04    0.00  0.1470E-05    0.00
     8  0.2182E+05  0.7485E-01  0.7034E+09   |    0.3059E-05    0.00  0.7073E-04    0.00  0.5037E-07    0.00
     9  0.2182E+05  0.4329E-14  0.4068E-04   |    0.1823E-03    0.01  0.4818E-07    0.00  0.1299E-06    0.00
    10  0.2183E+05  0.4026E-01  0.3786E+09   |     0.000        0.00   0.000        0.00   0.000        0.00
    11  0.2187E+05  0.6347E-16  0.5992E-06   |    0.2481E-03    0.01  0.1002E-01    0.30  0.8003E-09    0.00
    12  0.2189E+05  0.1276      0.1207E+10   |    0.7022E-04    0.00  0.1010E-01    0.30  0.5856E-09    0.00
 --------------------------------------------------------------------------------------------------------------
   sum                                       |    0.2046E-01    0.61  0.2053E-01    0.62  0.2883E-05    0.00
 --------------------------------------------------------------------------------------------------------------


 *** ANSYS BINARY FILE STATISTICS
  BUFFER SIZE USED= 16384
        1.562 MB WRITTEN ON ELEMENT SAVED DATA FILE: file0.esav
        4.688 MB WRITTEN ON ASSEMBLED MATRIX FILE: file0.full
        1.000 MB WRITTEN ON MODAL MATRIX FILE: file0.mode
        1.812 MB WRITTEN ON RESULTS FILE: file0.rst
 *************** Write FE CONNECTORS *********

 WRITE OUT CONSTRAINT EQUATIONS TO FILE= file.ce                                                                                                                                                                                                                                                             

 *GET  _NMODALSOLPROC  FROM  ACTI  ITEM=NUMC       VALUE=  2.00000000    

 FINISH SOLUTION PROCESSING


 ***** ROUTINE COMPLETED *****  CP =         1.404



 PRINTOUT RESUMED BY /GOP

 *GET  _WALLASOL  FROM  ACTI  ITEM=TIME WALL  VALUE=  15.7822222    

 *** ANSYS - ENGINEERING ANALYSIS SYSTEM  RELEASE Release 19.2     19.2     ***
 DISTRIBUTED ANSYS Academic Teaching Introductory              

 01055371  VERSION=WINDOWS x64   15:46:56  JAN 27, 2019 CP=      1.404

 DISPOSITIVO--Modal (A5)                                                       



          ***** ANSYS RESULTS INTERPRETATION (POST1) *****

 *** NOTE ***                            CP =       1.404   TIME= 15:46:56
 Reading results into the database (SET command) will update the current 
 displacement and force boundary conditions in the database with the     
 values from the results file for that load set.  Note that any          
 subsequent solutions will use these values unless action is taken to    
 either SAVE the current values or not overwrite them (/EXIT,NOSAVE).    

 PRINTOUT RESUMED BY /GOP

 Set Encoding of XML File to:ISO-8859-1

 Set Output of XML File to:
     PARM,     ,     ,     ,     ,     ,     ,     ,     ,     ,     ,     ,
         ,     ,     ,     ,     ,     ,     ,

 DATABASE WRITTEN ON FILE  parm.xml                                                                                                                                                                                                                                                            

 EXIT THE ANSYS POST1 DATABASE PROCESSOR


 ***** ROUTINE COMPLETED *****  CP =         1.404



 PRINTOUT RESUMED BY /GOP

 *GET  _WALLDONE  FROM  ACTI  ITEM=TIME WALL  VALUE=  15.7822222    

 PARAMETER _PREPTIME =     0.000000000    

 PARAMETER _SOLVTIME =     1.000000000    

 PARAMETER _POSTTIME =     0.000000000    

 PARAMETER _TOTALTIM =     1.000000000    

 EXIT ANSYS WITHOUT SAVING DATABASE


 NUMBER OF WARNING MESSAGES ENCOUNTERED=          3
 NUMBER OF ERROR   MESSAGES ENCOUNTERED=          0

+--------- D I S T R I B U T E D   A N S Y S   S T A T I S T I C S ------------+

Release: Release 19.2       Build: 19.2       Update: UP20180808   Platform: WINDOWS x64 
Date Run: 01/27/2019   Time: 15:46     Process ID: 904
Operating System: Windows 7 Service Pack 1 (Build: 7601)

Processor Model: Intel(R) Core(TM) i7-4790 CPU @ 3.60GHz

Compiler: Intel(R) FORTRAN Compiler Version 17.0.4  (Build: 20170411)
          Intel(R) C/C++ Compiler Version 17.0.4  (Build: 20170411)
          Intel(R) Math Kernel Library Version 2017.0.3 Product Build 20170413

Number of machines requested            :    1
Total number of cores available         :    8
Number of physical cores available      :    4
Number of processes requested           :    2
Number of threads per process requested :    1
Total number of cores requested         :    2 (Distributed Memory Parallel)               
MPI Type: INTELMPI
MPI Version: Intel(R) MPI Library 2017 Update 3 for Windows* OS


GPU Acceleration: Not Requested

Job Name: file0
Input File: dummy.dat

  Core                Machine Name   Working Directory
 -----------------------------------------------------
     0                 chandler-PC   C:\Users\chandler\Documents\analise_harmonica_transportador\_ProjectScratch\Scr5B5D
     1                 chandler-PC   C:\Users\chandler\Documents\analise_harmonica_transportador\_ProjectScratch\Scr5B5D
 
Latency time from master to core     1 =    0.503 microseconds
 
Communication speed from master to core     1 =  4962.47 MB/sec

Total CPU time for main thread                    :        1.2 seconds
Total CPU time summed for all threads             :        1.6 seconds

Elapsed time spent pre-processing model (/PREP7)  :        0.0 seconds
Elapsed time spent solution - preprocessing       :        0.0 seconds
Elapsed time spent computing solution             :        0.9 seconds
Elapsed time spent solution - postprocessing      :        0.0 seconds
Elapsed time spent post-processing model (/POST1) :        0.0 seconds
 
Eigensolver used                                  :            Block Lanczos
Equation solver computational rate                :       26.0 Gflops
Equation solver effective I/O rate                :       12.0 GB/sec

Maximum total memory used                         :      342.0 MB
Maximum total memory allocated                    :     3136.0 MB
Total physical memory available                   :         16 GB

Total amount of I/O written to disk               :        0.0 GB
Total amount of I/O read from disk                :        0.0 GB

+------ E N D   D I S T R I B U T E D   A N S Y S   S T A T I S T I C S -------+


 *---------------------------------------------------------------------------*
 |                                                                           |
 |                       DISTRIBUTED ANSYS RUN COMPLETED                     |
 |                                                                           |
 |---------------------------------------------------------------------------|
 |                                                                           |
 | Ansys Release 19.2          Build 19.2         UP20180808     WINDOWS x64 |
 |                                                                           |
 |---------------------------------------------------------------------------|
 |                                                                           |
 | Database Requested(-db)  1024 MB    Scratch Memory Requested      1024 MB |
 | Maximum Database Used       4 MB    Maximum Scratch Memory Used    158 MB |
 |                                                                           |
 |---------------------------------------------------------------------------|
 |                                                                           |
 |        CP Time      (sec) =          1.607       Time  =  15:46:56        |
 |        Elapsed Time (sec) =          3.000       Date  =  01/27/2019      |
 |                                                                           |
 *---------------------------------------------------------------------------*
