
 ANSYS Academic Teaching Introductory              


 *------------------------------------------------------------------*
 |                                                                  |
 |   W E L C O M E   T O   T H E   A N S Y S (R)  P R O G R A M     |
 |                                                                  |
 *------------------------------------------------------------------*




 ***************************************************************
 *            ANSYS Release 19.2     LEGAL NOTICES             *
 ***************************************************************
 *                                                             *
 * Copyright 1971-2018 ANSYS, Inc.  All rights reserved.       *
 * Unauthorized use, distribution or duplication is            *
 * prohibited.                                                 *
 *                                                             *
 * Ansys is a registered trademark of ANSYS, Inc. or its       *
 * subsidiaries in the United States or other countries.       *
 * See the ANSYS, Inc. online documentation or the ANSYS, Inc. *
 * documentation CD or online help for the complete Legal      *
 * Notice.                                                     *
 *                                                             *
 ***************************************************************
 *                                                             *
 * THIS ANSYS SOFTWARE PRODUCT AND PROGRAM DOCUMENTATION       *
 * INCLUDE TRADE SECRETS AND CONFIDENTIAL AND PROPRIETARY      *
 * PRODUCTS OF ANSYS, INC., ITS SUBSIDIARIES, OR LICENSORS.    *
 * The software products and documentation are furnished by    *
 * ANSYS, Inc. or its subsidiaries under a software license    *
 * agreement that contains provisions concerning               *
 * non-disclosure, copying, length and nature of use,          *
 * compliance with exporting laws, warranties, disclaimers,    *
 * limitations of liability, and remedies, and other           *
 * provisions.  The software products and documentation may be *
 * used, disclosed, transferred, or copied only in accordance  *
 * with the terms and conditions of that software license      *
 * agreement.                                                  *
 *                                                             *
 * ANSYS, Inc. is a UL registered                              *
 * ISO 9001:2008 company.                                      *
 *                                                             *
 ***************************************************************
 *                                                             *
 * This product is subject to U.S. laws governing export and   *
 * re-export.                                                  *
 *                                                             *
 * For U.S. Government users, except as specifically granted   *
 * by the ANSYS, Inc. software license agreement, the use,     *
 * duplication, or disclosure by the United States Government  *
 * is subject to restrictions stated in the ANSYS, Inc.        *
 * software license agreement and FAR 12.212 (for non-DOD      *
 * licenses).                                                  *
 *                                                             *
 ***************************************************************

 Release 19.2
     
 Point Releases and Patches installed:   
     
 Academic Student Release 19.2   
 FENSAP-ICE Release 19.2 


          *****  ANSYS COMMAND LINE ARGUMENTS  *****
  BATCH MODE REQUESTED (-b)    = NOLIST
  INPUT FILE COPY MODE (-c)    = COPY
  DISTRIBUTED MEMORY PARALLEL REQUESTED
       2 PARALLEL PROCESSES REQUESTED WITH SINGLE THREAD PER PROCESS
    TOTAL OF     2 CORES REQUESTED
  DESIGNXPLORER REQUESTED
  MPI OPTION                   = INTELMPI
  INPUT FILE NAME              = C:\Users\chandler\Documents\analise_harmonica_transportador\_ProjectScratch\Scr25A4\dummy.dat
  OUTPUT FILE NAME             = C:\Users\chandler\Documents\analise_harmonica_transportador\_ProjectScratch\Scr25A4\solve.out
  START-UP FILE MODE           = NOREAD
  STOP FILE MODE               = NOREAD

 RELEASE= Release 19.2         BUILD= 19.2      UP20180808   VERSION=WINDOWS x64 
 CURRENT JOBNAME=file0  04:22:24  FEB 04, 2019 CP=      0.109


 PARAMETER _DS_PROGRESS =     999.0000000    

 /INPUT FILE= ds.dat  LINE=       0



 *** NOTE ***                            CP =       0.203   TIME= 04:22:24
 The /CONFIG,NOELDB command is not valid in a Distributed ANSYS          
 solution.  Command is ignored.                                          

 *GET  _WALLSTRT  FROM  ACTI  ITEM=TIME WALL  VALUE=  4.37333333    

 TITLE= 
 DISPOSITIVO--Modal (A5)                                                       


 SET PARAMETER DIMENSIONS ON  _WB_PROJECTSCRATCH_DIR
  TYPE=STRI  DIMENSIONS=      248        1        1

 PARAMETER _WB_PROJECTSCRATCH_DIR(1) = C:\Users\chandler\Documents\analise_harmonica_transportador\_ProjectScratch\Scr25A4\

 SET PARAMETER DIMENSIONS ON  _WB_SOLVERFILES_DIR
  TYPE=STRI  DIMENSIONS=      248        1        1

 PARAMETER _WB_SOLVERFILES_DIR(1) = C:\Users\chandler\Documents\analise_harmonica_transportador\DISPOSITIVO_files\dp0\SYS\MECH\

 SET PARAMETER DIMENSIONS ON  _WB_USERFILES_DIR
  TYPE=STRI  DIMENSIONS=      248        1        1

 PARAMETER _WB_USERFILES_DIR(1) = C:\Users\chandler\Documents\analise_harmonica_transportador\DISPOSITIVO_files\user_files\
 --- Data in consistent MKS units. See Solving Units in the help system for more

 MKS UNITS SPECIFIED FOR INTERNAL    
  LENGTH        (l)  = METER (M)
  MASS          (M)  = KILOGRAM (KG)
  TIME          (t)  = SECOND (SEC)
  TEMPERATURE   (T)  = CELSIUS (C)
  TOFFSET            = 273.0
  CHARGE        (Q)  = COULOMB
  FORCE         (f)  = NEWTON (N) (KG-M/SEC2)
  HEAT               = JOULE (N-M)

  PRESSURE           = PASCAL (NEWTON/M**2)
  ENERGY        (W)  = JOULE (N-M)
  POWER         (P)  = WATT (N-M/SEC)
  CURRENT       (i)  = AMPERE (COULOMBS/SEC)
  CAPACITANCE   (C)  = FARAD
  INDUCTANCE    (L)  = HENRY
  MAGNETIC FLUX      = WEBER
  RESISTANCE    (R)  = OHM
  ELECTRIC POTENTIAL = VOLT

 INPUT  UNITS ARE ALSO SET TO MKS 

 *** ANSYS - ENGINEERING ANALYSIS SYSTEM  RELEASE Release 19.2     19.2     ***
 DISTRIBUTED ANSYS Academic Teaching Introductory              

 01055371  VERSION=WINDOWS x64   04:22:24  FEB 04, 2019 CP=      0.203

 DISPOSITIVO--Modal (A5)                                                       



          ***** ANSYS ANALYSIS DEFINITION (PREP7) *****
 *********** Nodes for the whole assembly ***********
 *********** Elements for Body 1 "SYS\Pe_a de alum_nio" ***********
 *********** Elements for Body 2 "SYS\Cer_mica1" ***********
 *********** Elements for Body 3 "SYS\Cer_mica2" ***********
 *********** Elements for Body 4 "SYS\Base de alum_nio" ***********
 *********** Elements for Body 5 "SYS\Pe_a de alum_nio" ***********
 *********** Elements for Body 6 "SYS\Cer_mica1" ***********
 *********** Elements for Body 7 "SYS\Cer_mica2" ***********
 *********** Elements for Body 8 "SYS\Base de alum_nio" ***********
 *********** Elements for Body 9 "SYS\Viga de Alum_nio" ***********
 *********** Send User Defined Coordinate System(s) ***********
 *********** Set Reference Temperature ***********
 *********** Send Materials ***********
 *********** Create Contact "Contact Region" ***********
             Real Constant Set For Above Contact Is 11 & 10
 *********** Create Contact "Contact Region 2" ***********
             Real Constant Set For Above Contact Is 13 & 12
 *********** Create Contact "Contact Region 3" ***********
             Real Constant Set For Above Contact Is 15 & 14
 *********** Create Contact "Contact Region 4" ***********
             Real Constant Set For Above Contact Is 17 & 16
 *********** Create Contact "Contact Region 5" ***********
             Real Constant Set For Above Contact Is 19 & 18
 *********** Create Contact "Contact Region 6" ***********
             Real Constant Set For Above Contact Is 21 & 20
 *********** Create Contact "Contact Region 7" ***********
             Real Constant Set For Above Contact Is 23 & 22
 *********** Create Contact "Contact Region 8" ***********
             Real Constant Set For Above Contact Is 25 & 24
 *********** Send Named Selection as Node Component ***********
 *********** Send Named Selection as Node Component ***********
 *********** Send Named Selection as Node Component ***********
 *********** Send Named Selection as Node Component ***********
 *********** Fixed Supports ***********


 ***** ROUTINE COMPLETED *****  CP =         0.265


 --- Number of total nodes = 10351
 --- Number of contact elements = 386
 --- Number of spring elements = 0
 --- Number of bearing elements = 0
 --- Number of solid elements = 5226
 --- Number of condensed parts = 0
 --- Number of total elements = 5612

 *GET  _WALLBSOL  FROM  ACTI  ITEM=TIME WALL  VALUE=  4.37333333    

 *****  ANSYS SOLUTION ROUTINE  *****


 PERFORM A MODAL ANALYSIS
  THIS WILL BE A NEW ANALYSIS


 USE SYM. BLOCK LANCZOS MODE EXTRACTION METHOD
  EXTRACT   14 MODES
  EXTRACT FREQUENCIES IN THE RANGE   20000.     TO   22000.    
  NORMALIZE THE MODE SHAPES TO THE MASS MATRIX

 ERASE THE CURRENT DATABASE OUTPUT CONTROL TABLE.


 WRITE ALL  ITEMS TO THE DATABASE WITH A FREQUENCY OF NONE
   FOR ALL APPLICABLE ENTITIES

 WRITE NSOL ITEMS TO THE DATABASE WITH A FREQUENCY OF ALL 
   FOR ALL APPLICABLE ENTITIES


 EXPAND ALL EXTRACTED MODES
  DO NOT CALCULATE ELEMENT RESULTS

 DO NOT COMBINE ELEMENT SAVE DATA FILES (.esav) AFTER DISTRIBUTED PARALLEL SOLUTION

 DO NOT COMBINE ELEMENT MATRIX FILES (.emat) AFTER DISTRIBUTED PARALLEL SOLUTION

 DO NOT COMBINE ASSEMBLED MATRIX FILES (.full) AFTER DISTRIBUTED PARALLEL SOLUTION

 SPECIFIED CONSTRAINT VOLT FOR PICKED NODES 
 REAL=  700.000000       IMAG=  0.00000000    

 SPECIFIED CONSTRAINT VOLT FOR PICKED NODES 
 REAL=  0.00000000       IMAG=  0.00000000    

 *GET  ANSINTER_  FROM  ACTI  ITEM=INT        VALUE=  0.00000000    

 *IF  ANSINTER_                         ( =   0.00000     )  NE  
      0                                 ( =   0.00000     )  THEN    

 *ENDIF

 *** NOTE ***                            CP =       0.265   TIME= 04:22:24
 The automatic domain decomposition logic has selected the MESH domain   
 decomposition method with 2 processes per solution.                     

 *****  ANSYS SOLVE    COMMAND  *****

 *** WARNING ***                         CP =       0.265   TIME= 04:22:24
 Element shape checking is currently inactive.  Issue SHPP,ON or         
 SHPP,WARN to reactivate, if desired.                                    

 *** NOTE ***                            CP =       0.296   TIME= 04:22:24
 The model data was checked and warning messages were found.             
  Please review output or errors file (                                  
 C:\Users\chandler\Documents\analise_harmonica_transportador\_ProjectScr 
 ratch\Scr25A4\file0.err ) for these warning messages.                   

 *** SELECTION OF ELEMENT TECHNOLOGIES FOR APPLICABLE ELEMENTS ***
      --- GIVE SUGGESTIONS AND RESET THE KEY OPTIONS ---

 ELEMENT TYPE    1 IS SOLID187. IT IS NOT ASSOCIATED WITH FULLY INCOMPRESSIBLE
 HYPERELASTIC MATERIALS. NO SUGGESTION IS AVAILABLE AND NO RESETTING IS NEEDED.

 ELEMENT TYPE    3 IS SOLID186. KEYOPT(2)=0 IS SUGGESTED AND HAS BEEN RESET.
  KEYOPT(1-12)=    0    0    0    0    0    0    0    0    0    0    0    0

 ELEMENT TYPE    4 IS SOLID187. IT IS NOT ASSOCIATED WITH FULLY INCOMPRESSIBLE
 HYPERELASTIC MATERIALS. NO SUGGESTION IS AVAILABLE AND NO RESETTING IS NEEDED.

 ELEMENT TYPE    5 IS SOLID187. IT IS NOT ASSOCIATED WITH FULLY INCOMPRESSIBLE
 HYPERELASTIC MATERIALS. NO SUGGESTION IS AVAILABLE AND NO RESETTING IS NEEDED.

 ELEMENT TYPE    6 IS SOLID186. KEYOPT(2)=0 IS SUGGESTED AND HAS BEEN RESET.
  KEYOPT(1-12)=    0    0    0    0    0    0    0    0    0    0    0    0

 ELEMENT TYPE    7 IS SOLID186. KEYOPT(2)=0 IS SUGGESTED AND HAS BEEN RESET.
  KEYOPT(1-12)=    0    0    0    0    0    0    0    0    0    0    0    0

 ELEMENT TYPE    8 IS SOLID187. IT IS NOT ASSOCIATED WITH FULLY INCOMPRESSIBLE
 HYPERELASTIC MATERIALS. NO SUGGESTION IS AVAILABLE AND NO RESETTING IS NEEDED.

 ELEMENT TYPE    9 IS SOLID187. IT IS NOT ASSOCIATED WITH FULLY INCOMPRESSIBLE
 HYPERELASTIC MATERIALS. NO SUGGESTION IS AVAILABLE AND NO RESETTING IS NEEDED.



 *** ANSYS - ENGINEERING ANALYSIS SYSTEM  RELEASE Release 19.2     19.2     ***
 DISTRIBUTED ANSYS Academic Teaching Introductory              

 01055371  VERSION=WINDOWS x64   04:22:24  FEB 04, 2019 CP=      0.296

 DISPOSITIVO--Modal (A5)                                                       



                       S O L U T I O N   O P T I O N S

   PROBLEM DIMENSIONALITY. . . . . . . . . . . . .3-D                  
   DEGREES OF FREEDOM. . . . . . UX   UY   UZ   VOLT
   ANALYSIS TYPE . . . . . . . . . . . . . . . . .MODAL                
      EXTRACTION METHOD. . . . . . . . . . . . . .BLOCK LANCZOS
   OFFSET TEMPERATURE FROM ABSOLUTE ZERO . . . . .  273.15    
   NUMBER OF MODES TO EXTRACT. . . . . . . . . . .    14
   MODAL EXTRACTION RANGE. . . . . . . . . . . . .  20000.     TO   22000.    
   GLOBALLY ASSEMBLED MATRIX . . . . . . . . . . .SYMMETRIC  
   NUMBER OF MODES TO EXPAND . . . . . . . . . . .ALL
   ELEMENT RESULTS CALCULATION . . . . . . . . . .OFF

 *** NOTE ***                            CP =       0.296   TIME= 04:22:24
 Poisson's ratio PR input has been converted to NU input.                

 *** NOTE ***                            CP =       0.296   TIME= 04:22:24
 The structural-electrostatic analysis with KEYOPT(1) = 1001 of element  
 SOLID226 will be piezoelectric.                                         

 *** NOTE ***                            CP =       0.296   TIME= 04:22:24
 The conditions for direct assembly have been met.  No .emat or .erot    
 files will be produced.                                                 

 *** WARNING ***                         CP =       0.328   TIME= 04:22:24
 Contact element 5241 is missing DOF VOLT (and possibly others) of       
 underlying base element 138.  Similar mismatches may exist elsewhere,   
 but checking for this is discontinued.                                  

 *** NOTE ***                            CP =       0.328   TIME= 04:22:24
 Symmetric Deformable- deformable contact pair identified by real        
 constant set 10 and contact element type 10 has been set up.  The       
 companion pair has real constant set ID 11.  Both pairs should have     
 the same behavior.                                                      
 ANSYS will deactivate the current pair and keep its companion pair,     
 resulting in asymmetric contact.                                        
 Linear contact is defined
 Contact algorithm: Augmented Lagrange method
 Contact detection at: Gauss integration point
 Contact stiffness factor FKN                  10.000    
 The resulting initial contact stiffness      0.35921E+16
 Default penetration tolerance factor FTOLN   0.10000    
 The resulting penetration tolerance          0.63803E-03
 Default opening contact stiffness OPSF will be used.
 Default tangent stiffness factor FKT          1.0000    
 Use constant contact stiffness
 Default Max. friction stress TAUMAX          0.10000E+21
 Average contact surface length               0.94135E-02
 Average contact pair depth                   0.63803E-02
 Default pinball region factor PINB           0.25000    
 The resulting pinball region                 0.15951E-02
 Initial penetration/gap is excluded.
 Bonded contact (always) is defined.

 *** NOTE ***                            CP =       0.328   TIME= 04:22:24
 Max.  Initial penetration 5.551115123E-17 was detected between contact  
 element 5234 and target element 5250.                                   
 ****************************************
  

 *** NOTE ***                            CP =       0.328   TIME= 04:22:24
 Symmetric Deformable- deformable contact pair identified by real        
 constant set 11 and contact element type 10 has been set up.  The       
 companion pair has real constant set ID 10.  Both pairs should have     
 the same behavior.                                                      
 ANSYS will keep the current pair and deactivate its companion pair,     
 resulting in asymmetric contact.                                        
 Linear contact is defined
 Contact algorithm: Augmented Lagrange method
 Contact detection at: Gauss integration point
 Contact stiffness factor FKN                  10.000    
 The resulting initial contact stiffness      0.35921E+16
 Default penetration tolerance factor FTOLN   0.10000    
 The resulting penetration tolerance          0.63500E-03
 Default opening contact stiffness OPSF will be used.
 Default tangent stiffness factor FKT          1.0000    
 Use constant contact stiffness
 Default Max. friction stress TAUMAX          0.10000E+21
 Average contact surface length               0.92448E-02
 Average contact pair depth                   0.63500E-02
 Default pinball region factor PINB           0.25000    
 The resulting pinball region                 0.15875E-02
 Initial penetration/gap is excluded.
 Bonded contact (always) is defined.

 *** NOTE ***                            CP =       0.328   TIME= 04:22:24
 Max.  Initial penetration 5.551115123E-17 was detected between contact  
 element 5241 and target element 5228.                                   
 ****************************************
  

 *** NOTE ***                            CP =       0.328   TIME= 04:22:24
 Symmetric Deformable- deformable contact pair identified by real        
 constant set 12 and contact element type 12 has been set up.  The       
 companion pair has real constant set ID 13.  Both pairs should have     
 the same behavior.                                                      
 ANSYS will keep the current pair and deactivate its companion pair,     
 resulting in asymmetric contact.                                        
 Linear contact is defined
 Contact algorithm: Augmented Lagrange method
 Contact detection at: Gauss integration point
 Contact stiffness factor FKN                  10.000    
 The resulting initial contact stiffness      0.81839E+16
 Default penetration tolerance factor FTOLN   0.10000    
 The resulting penetration tolerance          0.48876E-03
 Default opening contact stiffness OPSF will be used.
 Default tangent stiffness factor FKT          1.0000    
 Use constant contact stiffness
 Default Max. friction stress TAUMAX          0.10000E+21
 Average contact surface length               0.59897E-02
 Average contact pair depth                   0.48876E-02
 Default pinball region factor PINB           0.25000    
 The resulting pinball region                 0.12219E-02
 Initial penetration/gap is excluded.
 Bonded contact (always) is defined.

 *** NOTE ***                            CP =       0.328   TIME= 04:22:24
 Max.  Initial penetration 2.168404345E-19 was detected between contact  
 element 5272 and target element 5370.                                   
 ****************************************
  

 *** NOTE ***                            CP =       0.328   TIME= 04:22:24
 Symmetric Deformable- deformable contact pair identified by real        
 constant set 13 and contact element type 12 has been set up.  The       
 companion pair has real constant set ID 12.  Both pairs should have     
 the same behavior.                                                      
 ANSYS will deactivate the current pair and keep its companion pair,     
 resulting in asymmetric contact.                                        
 Linear contact is defined
 Contact algorithm: Augmented Lagrange method
 Contact detection at: Gauss integration point
 Contact stiffness factor FKN                  10.000    
 The resulting initial contact stiffness      0.81839E+16
 Default penetration tolerance factor FTOLN   0.10000    
 The resulting penetration tolerance          0.31338E-03
 Default opening contact stiffness OPSF will be used.
 Default tangent stiffness factor FKT          1.0000    
 Use constant contact stiffness
 Default Max. friction stress TAUMAX          0.10000E+21
 Average contact surface length               0.82700E-02
 Average contact pair depth                   0.31338E-02
 Default pinball region factor PINB           0.25000    
 The resulting pinball region                 0.78345E-03
 Initial penetration/gap is excluded.
 Bonded contact (always) is defined.

 *** NOTE ***                            CP =       0.328   TIME= 04:22:24
 Max.  Initial penetration 2.168404345E-19 was detected between contact  
 element 5294 and target element 5268.                                   
 ****************************************
  

 *** NOTE ***                            CP =       0.328   TIME= 04:22:24
 Symmetric Deformable- deformable contact pair identified by real        
 constant set 14 and contact element type 14 has been set up.  The       
 companion pair has real constant set ID 15.  Both pairs should have     
 the same behavior.                                                      
 ANSYS will deactivate the current pair and keep its companion pair,     
 resulting in asymmetric contact.                                        
 Linear contact is defined
 Contact algorithm: Augmented Lagrange method
 Contact detection at: Gauss integration point
 Contact stiffness factor FKN                  10.000    
 The resulting initial contact stiffness      0.35921E+16
 Default penetration tolerance factor FTOLN   0.10000    
 The resulting penetration tolerance          0.63500E-03
 Default opening contact stiffness OPSF will be used.
 Default tangent stiffness factor FKT          1.0000    
 Use constant contact stiffness
 Default Max. friction stress TAUMAX          0.10000E+21
 Average contact surface length               0.10026E-01
 Average contact pair depth                   0.63500E-02
 Default pinball region factor PINB           0.25000    
 The resulting pinball region                 0.15875E-02
 Initial penetration/gap is excluded.
 Bonded contact (always) is defined.

 *** NOTE ***                            CP =       0.328   TIME= 04:22:24
 Max.  Initial penetration 5.551115123E-17 was detected between contact  
 element 5376 and target element 5386.                                   
 ****************************************
  

 *** NOTE ***                            CP =       0.328   TIME= 04:22:24
 Symmetric Deformable- deformable contact pair identified by real        
 constant set 15 and contact element type 14 has been set up.  The       
 companion pair has real constant set ID 14.  Both pairs should have     
 the same behavior.                                                      
 ANSYS will keep the current pair and deactivate its companion pair,     
 resulting in asymmetric contact.                                        
 Linear contact is defined
 Contact algorithm: Augmented Lagrange method
 Contact detection at: Gauss integration point
 Contact stiffness factor FKN                  10.000    
 The resulting initial contact stiffness      0.35921E+16
 Default penetration tolerance factor FTOLN   0.10000    
 The resulting penetration tolerance          0.63500E-03
 Default opening contact stiffness OPSF will be used.
 Default tangent stiffness factor FKT          1.0000    
 Use constant contact stiffness
 Default Max. friction stress TAUMAX          0.10000E+21
 Average contact surface length               0.92448E-02
 Average contact pair depth                   0.63500E-02
 Default pinball region factor PINB           0.25000    
 The resulting pinball region                 0.15875E-02
 Initial penetration/gap is excluded.
 Bonded contact (always) is defined.

 *** NOTE ***                            CP =       0.328   TIME= 04:22:24
 Max.  Initial penetration 5.551115123E-17 was detected between contact  
 element 5383 and target element 5373.                                   
 ****************************************
  

 *** NOTE ***                            CP =       0.328   TIME= 04:22:24
 Symmetric Deformable- deformable contact pair identified by real        
 constant set 16 and contact element type 16 has been set up.  The       
 companion pair has real constant set ID 17.  Both pairs should have     
 the same behavior.                                                      
 ANSYS will keep the current pair and deactivate its companion pair,     
 resulting in asymmetric contact.                                        
 Linear contact is defined
 Contact algorithm: Augmented Lagrange method
 Contact detection at: Gauss integration point
 Contact stiffness factor FKN                  10.000    
 The resulting initial contact stiffness      0.35921E+16
 Default penetration tolerance factor FTOLN   0.10000    
 The resulting penetration tolerance          0.63500E-03
 Default opening contact stiffness OPSF will be used.
 Default tangent stiffness factor FKT          1.0000    
 Use constant contact stiffness
 Default Max. friction stress TAUMAX          0.10000E+21
 Average contact surface length               0.10026E-01
 Average contact pair depth                   0.63500E-02
 Default pinball region factor PINB           0.25000    
 The resulting pinball region                 0.15875E-02
 Initial penetration/gap is excluded.
 Bonded contact (always) is defined.

 *** NOTE ***                            CP =       0.328   TIME= 04:22:24
 Max.  Initial penetration 0 was detected between contact element 5396   
 and target element 5411.                                                
 ****************************************
  

 *** NOTE ***                            CP =       0.328   TIME= 04:22:24
 Symmetric Deformable- deformable contact pair identified by real        
 constant set 17 and contact element type 16 has been set up.  The       
 companion pair has real constant set ID 16.  Both pairs should have     
 the same behavior.                                                      
 ANSYS will deactivate the current pair and keep its companion pair,     
 resulting in asymmetric contact.                                        
 Linear contact is defined
 Contact algorithm: Augmented Lagrange method
 Contact detection at: Gauss integration point
 Contact stiffness factor FKN                  10.000    
 The resulting initial contact stiffness      0.35921E+16
 Default penetration tolerance factor FTOLN   0.10000    
 The resulting penetration tolerance          0.73035E-03
 Default opening contact stiffness OPSF will be used.
 Default tangent stiffness factor FKT          1.0000    
 Use constant contact stiffness
 Default Max. friction stress TAUMAX          0.10000E+21
 Average contact surface length               0.12983E-01
 Average contact pair depth                   0.73035E-02
 Default pinball region factor PINB           0.25000    
 The resulting pinball region                 0.18259E-02
 Initial penetration/gap is excluded.
 Bonded contact (always) is defined.

 *** NOTE ***                            CP =       0.328   TIME= 04:22:24
 Max.  Initial penetration 5.551115123E-17 was detected between contact  
 element 5403 and target element 5395.                                   
 ****************************************
  

 *** NOTE ***                            CP =       0.328   TIME= 04:22:24
 Symmetric Deformable- deformable contact pair identified by real        
 constant set 18 and contact element type 18 has been set up.  The       
 companion pair has real constant set ID 19.  Both pairs should have     
 the same behavior.                                                      
 ANSYS will deactivate the current pair and keep its companion pair,     
 resulting in asymmetric contact.                                        
 Linear contact is defined
 Contact algorithm: Augmented Lagrange method
 Contact detection at: Gauss integration point
 Contact stiffness factor FKN                  10.000    
 The resulting initial contact stiffness      0.35921E+16
 Default penetration tolerance factor FTOLN   0.10000    
 The resulting penetration tolerance          0.63803E-03
 Default opening contact stiffness OPSF will be used.
 Default tangent stiffness factor FKT          1.0000    
 Use constant contact stiffness
 Default Max. friction stress TAUMAX          0.10000E+21
 Average contact surface length               0.94135E-02
 Average contact pair depth                   0.63803E-02
 Default pinball region factor PINB           0.25000    
 The resulting pinball region                 0.15951E-02
 Initial penetration/gap is excluded.
 Bonded contact (always) is defined.

 *** NOTE ***                            CP =       0.328   TIME= 04:22:24
 Max.  Initial penetration 5.551115123E-17 was detected between contact  
 element 5420 and target element 5436.                                   
 ****************************************
  

 *** NOTE ***                            CP =       0.328   TIME= 04:22:24
 Symmetric Deformable- deformable contact pair identified by real        
 constant set 19 and contact element type 18 has been set up.  The       
 companion pair has real constant set ID 18.  Both pairs should have     
 the same behavior.                                                      
 ANSYS will keep the current pair and deactivate its companion pair,     
 resulting in asymmetric contact.                                        
 Linear contact is defined
 Contact algorithm: Augmented Lagrange method
 Contact detection at: Gauss integration point
 Contact stiffness factor FKN                  10.000    
 The resulting initial contact stiffness      0.35921E+16
 Default penetration tolerance factor FTOLN   0.10000    
 The resulting penetration tolerance          0.63500E-03
 Default opening contact stiffness OPSF will be used.
 Default tangent stiffness factor FKT          1.0000    
 Use constant contact stiffness
 Default Max. friction stress TAUMAX          0.10000E+21
 Average contact surface length               0.92448E-02
 Average contact pair depth                   0.63500E-02
 Default pinball region factor PINB           0.25000    
 The resulting pinball region                 0.15875E-02
 Initial penetration/gap is excluded.
 Bonded contact (always) is defined.

 *** NOTE ***                            CP =       0.328   TIME= 04:22:24
 Max.  Initial penetration 5.551115123E-17 was detected between contact  
 element 5427 and target element 5414.                                   
 ****************************************
  

 *** NOTE ***                            CP =       0.328   TIME= 04:22:24
 Symmetric Deformable- deformable contact pair identified by real        
 constant set 20 and contact element type 20 has been set up.  The       
 companion pair has real constant set ID 21.  Both pairs should have     
 the same behavior.                                                      
 ANSYS will keep the current pair and deactivate its companion pair,     
 resulting in asymmetric contact.                                        
 Linear contact is defined
 Contact algorithm: Augmented Lagrange method
 Contact detection at: Gauss integration point
 Contact stiffness factor FKN                  10.000    
 The resulting initial contact stiffness      0.74682E+16
 Default penetration tolerance factor FTOLN   0.10000    
 The resulting penetration tolerance          0.53560E-03
 Default opening contact stiffness OPSF will be used.
 Default tangent stiffness factor FKT          1.0000    
 Use constant contact stiffness
 Default Max. friction stress TAUMAX          0.10000E+21
 Average contact surface length               0.61436E-02
 Average contact pair depth                   0.53560E-02
 Default pinball region factor PINB           0.25000    
 The resulting pinball region                 0.13390E-02
 Initial penetration/gap is excluded.
 Bonded contact (always) is defined.

 *** NOTE ***                            CP =       0.328   TIME= 04:22:24
 Max.  Initial penetration 2.168404345E-19 was detected between contact  
 element 5458 and target element 5569.                                   
 ****************************************
  

 *** NOTE ***                            CP =       0.328   TIME= 04:22:24
 Symmetric Deformable- deformable contact pair identified by real        
 constant set 21 and contact element type 20 has been set up.  The       
 companion pair has real constant set ID 20.  Both pairs should have     
 the same behavior.                                                      
 ANSYS will deactivate the current pair and keep its companion pair,     
 resulting in asymmetric contact.                                        
 Linear contact is defined
 Contact algorithm: Augmented Lagrange method
 Contact detection at: Gauss integration point
 Contact stiffness factor FKN                  10.000    
 The resulting initial contact stiffness      0.74682E+16
 Default penetration tolerance factor FTOLN   0.10000    
 The resulting penetration tolerance          0.29823E-03
 Default opening contact stiffness OPSF will be used.
 Default tangent stiffness factor FKT          1.0000    
 Use constant contact stiffness
 Default Max. friction stress TAUMAX          0.10000E+21
 Average contact surface length               0.71414E-02
 Average contact pair depth                   0.29823E-02
 Default pinball region factor PINB           0.25000    
 The resulting pinball region                 0.74557E-03
 Initial penetration/gap is excluded.
 Bonded contact (always) is defined.

 *** NOTE ***                            CP =       0.328   TIME= 04:22:24
 Max.  Initial penetration 4.33680869E-19 was detected between contact   
 element 5480 and target element 5441.                                   
 ****************************************
  

 *** NOTE ***                            CP =       0.328   TIME= 04:22:24
 Symmetric Deformable- deformable contact pair identified by real        
 constant set 22 and contact element type 22 has been set up.  The       
 companion pair has real constant set ID 23.  Both pairs should have     
 the same behavior.                                                      
 ANSYS will deactivate the current pair and keep its companion pair,     
 resulting in asymmetric contact.                                        
 Linear contact is defined
 Contact algorithm: Augmented Lagrange method
 Contact detection at: Gauss integration point
 Contact stiffness factor FKN                  10.000    
 The resulting initial contact stiffness      0.35921E+16
 Default penetration tolerance factor FTOLN   0.10000    
 The resulting penetration tolerance          0.63500E-03
 Default opening contact stiffness OPSF will be used.
 Default tangent stiffness factor FKT          1.0000    
 Use constant contact stiffness
 Default Max. friction stress TAUMAX          0.10000E+21
 Average contact surface length               0.10026E-01
 Average contact pair depth                   0.63500E-02
 Default pinball region factor PINB           0.25000    
 The resulting pinball region                 0.15875E-02
 Initial penetration/gap is excluded.
 Bonded contact (always) is defined.

 *** NOTE ***                            CP =       0.328   TIME= 04:22:24
 Max.  Initial penetration 5.551115123E-17 was detected between contact  
 element 5577 and target element 5587.                                   
 ****************************************
  

 *** NOTE ***                            CP =       0.328   TIME= 04:22:24
 Symmetric Deformable- deformable contact pair identified by real        
 constant set 23 and contact element type 22 has been set up.  The       
 companion pair has real constant set ID 22.  Both pairs should have     
 the same behavior.                                                      
 ANSYS will keep the current pair and deactivate its companion pair,     
 resulting in asymmetric contact.                                        
 Linear contact is defined
 Contact algorithm: Augmented Lagrange method
 Contact detection at: Gauss integration point
 Contact stiffness factor FKN                  10.000    
 The resulting initial contact stiffness      0.35921E+16
 Default penetration tolerance factor FTOLN   0.10000    
 The resulting penetration tolerance          0.63500E-03
 Default opening contact stiffness OPSF will be used.
 Default tangent stiffness factor FKT          1.0000    
 Use constant contact stiffness
 Default Max. friction stress TAUMAX          0.10000E+21
 Average contact surface length               0.92448E-02
 Average contact pair depth                   0.63500E-02
 Default pinball region factor PINB           0.25000    
 The resulting pinball region                 0.15875E-02
 Initial penetration/gap is excluded.
 Bonded contact (always) is defined.

 *** NOTE ***                            CP =       0.328   TIME= 04:22:24
 Max.  Initial penetration 5.551115123E-17 was detected between contact  
 element 5583 and target element 5573.                                   
 ****************************************
  

 *** NOTE ***                            CP =       0.328   TIME= 04:22:24
 Symmetric Deformable- deformable contact pair identified by real        
 constant set 24 and contact element type 24 has been set up.  The       
 companion pair has real constant set ID 25.  Both pairs should have     
 the same behavior.                                                      
 ANSYS will keep the current pair and deactivate its companion pair,     
 resulting in asymmetric contact.                                        
 Linear contact is defined
 Contact algorithm: Augmented Lagrange method
 Contact detection at: Gauss integration point
 Contact stiffness factor FKN                  10.000    
 The resulting initial contact stiffness      0.21977E+16
 Default penetration tolerance factor FTOLN   0.10000    
 The resulting penetration tolerance          0.63500E-03
 Default opening contact stiffness OPSF will be used.
 Default tangent stiffness factor FKT          1.0000    
 Use constant contact stiffness
 Default Max. friction stress TAUMAX          0.10000E+21
 Average contact surface length               0.10026E-01
 Average contact pair depth                   0.63500E-02
 Default pinball region factor PINB           0.25000    
 The resulting pinball region                 0.15875E-02
 Initial penetration/gap is excluded.
 Bonded contact (always) is defined.

 *** NOTE ***                            CP =       0.328   TIME= 04:22:24
 Max.  Initial penetration 1.110223025E-16 was detected between contact  
 element 5597 and target element 5608.                                   
 ****************************************
  

 *** NOTE ***                            CP =       0.328   TIME= 04:22:24
 Symmetric Deformable- deformable contact pair identified by real        
 constant set 25 and contact element type 24 has been set up.  The       
 companion pair has real constant set ID 24.  Both pairs should have     
 the same behavior.                                                      
 ANSYS will deactivate the current pair and keep its companion pair,     
 resulting in asymmetric contact.                                        
 Linear contact is defined
 Contact algorithm: Augmented Lagrange method
 Contact detection at: Gauss integration point
 Contact stiffness factor FKN                  10.000    
 The resulting initial contact stiffness      0.21977E+16
 Default penetration tolerance factor FTOLN   0.10000    
 The resulting penetration tolerance          0.18201E-02
 Default opening contact stiffness OPSF will be used.
 Default tangent stiffness factor FKT          1.0000    
 Use constant contact stiffness
 Default Max. friction stress TAUMAX          0.10000E+21
 Average contact surface length               0.12983E-01
 Average contact pair depth                   0.18201E-01
 Default pinball region factor PINB           0.25000    
 The resulting pinball region                 0.45501E-02
 Initial penetration/gap is excluded.
 Bonded contact (always) is defined.

 *** NOTE ***                            CP =       0.328   TIME= 04:22:24
 Max.  Initial penetration 5.551115123E-17 was detected between contact  
 element 5601 and target element 5593.                                   
 ****************************************
  
  
  

  
  
     D I S T R I B U T E D   D O M A I N   D E C O M P O S E R
  
  ...Number of elements: 5612
  ...Number of nodes:    10351
  ...Decompose to 2 CPU domains
  ...Element load balance ratio =     1.002


                      L O A D   S T E P   O P T I O N S

   LOAD STEP NUMBER. . . . . . . . . . . . . . . .     1
   THERMAL STRAINS INCLUDED IN THE LOAD VECTOR . .   YES
   PRINT OUTPUT CONTROLS . . . . . . . . . . . . .NO PRINTOUT
   DATABASE OUTPUT CONTROLS
      ITEM     FREQUENCY   COMPONENT
       ALL       NONE               
      NSOL        ALL               


 *** NOTE ***                            CP =       0.452   TIME= 04:22:24
 Symmetric Deformable- deformable contact pair identified by real        
 constant set 12 and contact element type 12 has been set up.  The       
 companion pair has real constant set ID 13.  Both pairs should have     
 the same behavior.                                                      
 ANSYS will keep the current pair and deactivate its companion pair,     
 resulting in asymmetric contact.                                        
 Linear contact is defined
 Contact algorithm: Augmented Lagrange method
 Contact detection at: Gauss integration point
 Contact stiffness factor FKN                  10.000    
 The resulting initial contact stiffness      0.81839E+16
 Default penetration tolerance factor FTOLN   0.10000    
 The resulting penetration tolerance          0.48876E-03
 Default opening contact stiffness OPSF will be used.
 Default tangent stiffness factor FKT          1.0000    
 Use constant contact stiffness
 Default Max. friction stress TAUMAX          0.10000E+21
 Average contact surface length               0.59897E-02
 Average contact pair depth                   0.48876E-02
 Default pinball region factor PINB           0.25000    
 The resulting pinball region                 0.12219E-02
 Initial penetration/gap is excluded.
 Bonded contact (always) is defined.

 *** NOTE ***                            CP =       0.452   TIME= 04:22:24
 Max.  Initial penetration 2.168404345E-19 was detected between contact  
 element 5272 and target element 5370.                                   
 ****************************************
  

 *** NOTE ***                            CP =       0.452   TIME= 04:22:24
 Symmetric Deformable- deformable contact pair identified by real        
 constant set 13 and contact element type 12 has been set up.  The       
 companion pair has real constant set ID 12.  Both pairs should have     
 the same behavior.                                                      
 ANSYS will deactivate the current pair and keep its companion pair,     
 resulting in asymmetric contact.                                        
 Linear contact is defined
 Contact algorithm: Augmented Lagrange method
 Contact detection at: Gauss integration point
 Contact stiffness factor FKN                  10.000    
 The resulting initial contact stiffness      0.81839E+16
 Default penetration tolerance factor FTOLN   0.10000    
 The resulting penetration tolerance          0.31338E-03
 Default opening contact stiffness OPSF will be used.
 Default tangent stiffness factor FKT          1.0000    
 Use constant contact stiffness
 Default Max. friction stress TAUMAX          0.10000E+21
 Average contact surface length               0.82700E-02
 Average contact pair depth                   0.31338E-02
 Default pinball region factor PINB           0.25000    
 The resulting pinball region                 0.78345E-03
 Initial penetration/gap is excluded.
 Bonded contact (always) is defined.

 *** NOTE ***                            CP =       0.452   TIME= 04:22:24
 Max.  Initial penetration 2.168404345E-19 was detected between contact  
 element 5294 and target element 5268.                                   
 ****************************************
  

 *** NOTE ***                            CP =       0.452   TIME= 04:22:24
 Symmetric Deformable- deformable contact pair identified by real        
 constant set 18 and contact element type 18 has been set up.  The       
 companion pair has real constant set ID 19.  Both pairs should have     
 the same behavior.                                                      
 ANSYS will deactivate the current pair and keep its companion pair,     
 resulting in asymmetric contact.                                        
 Linear contact is defined
 Contact algorithm: Augmented Lagrange method
 Contact detection at: Gauss integration point
 Contact stiffness factor FKN                  10.000    
 The resulting initial contact stiffness      0.35921E+16
 Default penetration tolerance factor FTOLN   0.10000    
 The resulting penetration tolerance          0.63803E-03
 Default opening contact stiffness OPSF will be used.
 Default tangent stiffness factor FKT          1.0000    
 Use constant contact stiffness
 Default Max. friction stress TAUMAX          0.10000E+21
 Average contact surface length               0.94135E-02
 Average contact pair depth                   0.63803E-02
 Default pinball region factor PINB           0.25000    
 The resulting pinball region                 0.15951E-02
 Initial penetration/gap is excluded.
 Bonded contact (always) is defined.

 *** NOTE ***                            CP =       0.452   TIME= 04:22:24
 Max.  Initial penetration 5.551115123E-17 was detected between contact  
 element 5420 and target element 5436.                                   
 ****************************************
  

 *** NOTE ***                            CP =       0.452   TIME= 04:22:24
 Symmetric Deformable- deformable contact pair identified by real        
 constant set 19 and contact element type 18 has been set up.  The       
 companion pair has real constant set ID 18.  Both pairs should have     
 the same behavior.                                                      
 ANSYS will keep the current pair and deactivate its companion pair,     
 resulting in asymmetric contact.                                        
 Linear contact is defined
 Contact algorithm: Augmented Lagrange method
 Contact detection at: Gauss integration point
 Contact stiffness factor FKN                  10.000    
 The resulting initial contact stiffness      0.35921E+16
 Default penetration tolerance factor FTOLN   0.10000    
 The resulting penetration tolerance          0.63500E-03
 Default opening contact stiffness OPSF will be used.
 Default tangent stiffness factor FKT          1.0000    
 Use constant contact stiffness
 Default Max. friction stress TAUMAX          0.10000E+21
 Average contact surface length               0.92448E-02
 Average contact pair depth                   0.63500E-02
 Default pinball region factor PINB           0.25000    
 The resulting pinball region                 0.15875E-02
 Initial penetration/gap is excluded.
 Bonded contact (always) is defined.

 *** NOTE ***                            CP =       0.452   TIME= 04:22:24
 Max.  Initial penetration 5.551115123E-17 was detected between contact  
 element 5427 and target element 5414.                                   
 ****************************************
  

 *** NOTE ***                            CP =       0.452   TIME= 04:22:24
 Symmetric Deformable- deformable contact pair identified by real        
 constant set 22 and contact element type 22 has been set up.  The       
 companion pair has real constant set ID 23.  Both pairs should have     
 the same behavior.                                                      
 ANSYS will deactivate the current pair and keep its companion pair,     
 resulting in asymmetric contact.                                        
 Linear contact is defined
 Contact algorithm: Augmented Lagrange method
 Contact detection at: Gauss integration point
 Contact stiffness factor FKN                  10.000    
 The resulting initial contact stiffness      0.35921E+16
 Default penetration tolerance factor FTOLN   0.10000    
 The resulting penetration tolerance          0.63500E-03
 Default opening contact stiffness OPSF will be used.
 Default tangent stiffness factor FKT          1.0000    
 Use constant contact stiffness
 Default Max. friction stress TAUMAX          0.10000E+21
 Average contact surface length               0.10026E-01
 Average contact pair depth                   0.63500E-02
 Default pinball region factor PINB           0.25000    
 The resulting pinball region                 0.15875E-02
 Initial penetration/gap is excluded.
 Bonded contact (always) is defined.

 *** NOTE ***                            CP =       0.452   TIME= 04:22:24
 Max.  Initial penetration 5.551115123E-17 was detected between contact  
 element 5577 and target element 5587.                                   
 ****************************************
  

 *** NOTE ***                            CP =       0.452   TIME= 04:22:24
 Symmetric Deformable- deformable contact pair identified by real        
 constant set 23 and contact element type 22 has been set up.  The       
 companion pair has real constant set ID 22.  Both pairs should have     
 the same behavior.                                                      
 ANSYS will keep the current pair and deactivate its companion pair,     
 resulting in asymmetric contact.                                        
 Linear contact is defined
 Contact algorithm: Augmented Lagrange method
 Contact detection at: Gauss integration point
 Contact stiffness factor FKN                  10.000    
 The resulting initial contact stiffness      0.35921E+16
 Default penetration tolerance factor FTOLN   0.10000    
 The resulting penetration tolerance          0.63500E-03
 Default opening contact stiffness OPSF will be used.
 Default tangent stiffness factor FKT          1.0000    
 Use constant contact stiffness
 Default Max. friction stress TAUMAX          0.10000E+21
 Average contact surface length               0.92448E-02
 Average contact pair depth                   0.63500E-02
 Default pinball region factor PINB           0.25000    
 The resulting pinball region                 0.15875E-02
 Initial penetration/gap is excluded.
 Bonded contact (always) is defined.

 *** NOTE ***                            CP =       0.452   TIME= 04:22:24
 Max.  Initial penetration 5.551115123E-17 was detected between contact  
 element 5583 and target element 5573.                                   
 ****************************************
  

 *** NOTE ***                            CP =       0.452   TIME= 04:22:24
 Symmetric Deformable- deformable contact pair identified by real        
 constant set 24 and contact element type 24 has been set up.  The       
 companion pair has real constant set ID 25.  Both pairs should have     
 the same behavior.                                                      
 ANSYS will keep the current pair and deactivate its companion pair,     
 resulting in asymmetric contact.                                        
 Linear contact is defined
 Contact algorithm: Augmented Lagrange method
 Contact detection at: Gauss integration point
 Contact stiffness factor FKN                  10.000    
 The resulting initial contact stiffness      0.21977E+16
 Default penetration tolerance factor FTOLN   0.10000    
 The resulting penetration tolerance          0.63500E-03
 Default opening contact stiffness OPSF will be used.
 Default tangent stiffness factor FKT          1.0000    
 Use constant contact stiffness
 Default Max. friction stress TAUMAX          0.10000E+21
 Average contact surface length               0.10026E-01
 Average contact pair depth                   0.63500E-02
 Default pinball region factor PINB           0.25000    
 The resulting pinball region                 0.15875E-02
 Initial penetration/gap is excluded.
 Bonded contact (always) is defined.

 *** NOTE ***                            CP =       0.452   TIME= 04:22:24
 Max.  Initial penetration 1.110223025E-16 was detected between contact  
 element 5597 and target element 5608.                                   
 ****************************************
  

 *** NOTE ***                            CP =       0.452   TIME= 04:22:24
 Symmetric Deformable- deformable contact pair identified by real        
 constant set 25 and contact element type 24 has been set up.  The       
 companion pair has real constant set ID 24.  Both pairs should have     
 the same behavior.                                                      
 ANSYS will deactivate the current pair and keep its companion pair,     
 resulting in asymmetric contact.                                        
 Linear contact is defined
 Contact algorithm: Augmented Lagrange method
 Contact detection at: Gauss integration point
 Contact stiffness factor FKN                  10.000    
 The resulting initial contact stiffness      0.21977E+16
 Default penetration tolerance factor FTOLN   0.10000    
 The resulting penetration tolerance          0.18201E-02
 Default opening contact stiffness OPSF will be used.
 Default tangent stiffness factor FKT          1.0000    
 Use constant contact stiffness
 Default Max. friction stress TAUMAX          0.10000E+21
 Average contact surface length               0.12983E-01
 Average contact pair depth                   0.18201E-01
 Default pinball region factor PINB           0.25000    
 The resulting pinball region                 0.45501E-02
 Initial penetration/gap is excluded.
 Bonded contact (always) is defined.

 *** NOTE ***                            CP =       0.452   TIME= 04:22:24
 Max.  Initial penetration 5.551115123E-17 was detected between contact  
 element 5601 and target element 5593.                                   
 ****************************************
  

 *** WARNING ***                         CP =       0.452   TIME= 04:22:24
 The modal analysis has non-zero displacements defined, which will cause 
 a load vector to be generated.  The load vector may be used by the      
 mode superposition analyses.  This feature is not documented.           


                         ***********  PRECISE MASS SUMMARY  ***********

   TOTAL RIGID BODY MASS MATRIX ABOUT ORIGIN
               Translational mass               |   Coupled translational/rotational mass
         3.3353        0.0000        0.0000     |     0.0000      -0.43815      -0.14333E-02
         0.0000        3.3353        0.0000     |    0.43815        0.0000      -0.14179    
         0.0000        0.0000        3.3353     |    0.14333E-02   0.14179        0.0000    
     ------------------------------------------ | ------------------------------------------
                                                |         Rotational mass (inertia)
                                                |    0.90668E-01   0.60925E-04  -0.18622E-01
                                                |    0.60925E-04   0.19388       0.18815E-03
                                                |   -0.18622E-01   0.18815E-03   0.10413    

   TOTAL MASS =  3.3353    
     The mass principal axes coincide with the global Cartesian axes

   CENTER OF MASS (X,Y,Z)=  -0.42511E-01   0.42975E-03  -0.13137    

   TOTAL INERTIA ABOUT CENTER OF MASS
        0.33110E-01  -0.83285E-08   0.41948E-05
       -0.83285E-08   0.13029      -0.14581E-06
        0.41948E-05  -0.14581E-06   0.98106E-01
     The inertia principal axes coincide with the global Cartesian axes


  *** MASS SUMMARY BY ELEMENT TYPE ***

  TYPE      MASS
     1   1.28752    
     2  0.149502E-01
     3  0.149502E-01
     4  0.123170    
     5   1.28751    
     6  0.149502E-01
     7  0.149502E-01
     8  0.123170    
     9  0.454162    

 Range of element maximum matrix coefficients in global coordinates
 Maximum = 8.750697397E+10 at element 5400.                              
 Minimum = 315045913 at element 188.                                     

   *** ELEMENT MATRIX FORMULATION TIMES
     TYPE    NUMBER   ENAME      TOTAL CP  AVE CP

        1      1839  SOLID187      0.125   0.000068
        2         5  SOLID226      0.000   0.000000
        3         5  SOLID186      0.000   0.000000
        4        63  SOLID187      0.000   0.000000
        5      1857  SOLID187      0.109   0.000059
        6         5  SOLID186      0.000   0.000000
        7         5  SOLID186      0.000   0.000000
        8        56  SOLID187      0.031   0.000557
        9      1391  SOLID187      0.109   0.000079
       10        12  CONTA174      0.000   0.000000
       11        12  TARGE170      0.000   0.000000
       12        60  CONTA174      0.000   0.000000
       13        60  TARGE170      0.000   0.000000
       14        10  CONTA174      0.000   0.000000
       15        10  TARGE170      0.000   0.000000
       16        11  CONTA174      0.000   0.000000
       17        11  TARGE170      0.000   0.000000
       18        12  CONTA174      0.000   0.000000
       19        12  TARGE170      0.000   0.000000
       20        67  CONTA174      0.000   0.000000
       21        67  TARGE170      0.000   0.000000
       22        10  CONTA174      0.000   0.000000
       23        10  TARGE170      0.000   0.000000
       24        11  CONTA174      0.000   0.000000
       25        11  TARGE170      0.000   0.000000
 Time at end of element matrix formulation CP = 0.717604578.             

  BLOCK LANCZOS CALCULATION OF UP TO   14 EIGENVECTORS.
  NUMBER OF EQUATIONS              =        30936
  MAXIMUM WAVEFRONT                =          328
  MAXIMUM MODES STORED             =           14
  MINIMUM EIGENVALUE               =  0.20000E+05
  MAXIMUM EIGENVALUE               =  0.22000E+05


  Local memory allocated for solver              =     49.466 MB
  Local memory required for in-core solution     =     47.169 MB
  Local memory required for out-of-core solution =     19.432 MB

  Total memory allocated for solver              =     96.646 MB
  Total memory required for in-core solution     =     92.159 MB
  Total memory required for out-of-core solution =     37.861 MB

 *** NOTE ***                            CP =       0.998   TIME= 04:22:24
 The Distributed Sparse Matrix Solver used by the Block Lanczos          
 eigensolver is currently running in the in-core memory mode.  This      
 memory mode uses the most amount of memory in order to avoid using the  
 hard drive as much as possible, which most often results in the         
 fastest solution time.  This mode is recommended if enough physical     
 memory is present to accommodate all of the solver data.                

 *** NOTE ***                            CP =       1.841   TIME= 04:22:25
 Fewer modes than the requested number of modes ( 14 ) were computed.    
 The range specified (FREQB= 20000, FREQE= 22000) contains only 12       
 modes.                                                                  

 *** ANSYS - ENGINEERING ANALYSIS SYSTEM  RELEASE Release 19.2     19.2     ***
 DISTRIBUTED ANSYS Academic Teaching Introductory              

 01055371  VERSION=WINDOWS x64   04:22:25  FEB 04, 2019 CP=      1.841

 DISPOSITIVO--Modal (A5)                                                       



 *** FREQUENCIES FROM BLOCK LANCZOS ITERATION ***

  MODE    FREQUENCY (HERTZ)      



   FREQUENCY RANGE REQUESTED=   20000.0       22000.0    
    1     20100.32006082    
    2     20327.94617953    
    3     20346.67008554    
    4     20455.33759374    
    5     20479.40832379    
    6     20525.18066867    
    7     20714.55633742    
    8     20884.99732482    
    9     20976.56478689    
   10     21256.54020977    
   11     21623.93031444    
   12     21898.82348246    

 *** ANSYS - ENGINEERING ANALYSIS SYSTEM  RELEASE Release 19.2     19.2     ***
 DISTRIBUTED ANSYS Academic Teaching Introductory              

 01055371  VERSION=WINDOWS x64   04:22:25  FEB 04, 2019 CP=      1.888

 DISPOSITIVO--Modal (A5)                                                       





          ***** PARTICIPATION FACTOR CALCULATION *****  X  DIRECTION
                                                                                  CUMULATIVE     RATIO EFF.MASS
  MODE   FREQUENCY       PERIOD      PARTIC.FACTOR     RATIO    EFFECTIVE MASS   MASS FRACTION   TO TOTAL MASS
     1     20100.3       0.49750E-04  -0.43464E-02    0.113432    0.188910E-04    0.997156E-02    0.566390E-05
     2     20327.9       0.49193E-04  -0.63673E-02    0.166173    0.405422E-04    0.313716E-01    0.121554E-04
     3     20346.7       0.49148E-04   0.69722E-03    0.018196    0.486117E-06    0.316282E-01    0.145748E-06
     4     20455.3       0.48887E-04  -0.92498E-02    0.241403    0.855595E-04    0.767905E-01    0.256525E-04
     5     20479.4       0.48830E-04  -0.15597E-01    0.407042    0.243256E-03    0.205192        0.729330E-04
     6     20525.2       0.48721E-04  -0.38317E-01    1.000000    0.146820E-02    0.980175        0.440195E-03
     7     20714.6       0.48275E-04   0.50359E-02    0.131428    0.253605E-04    0.993562        0.760359E-05
     8     20885.0       0.47881E-04  -0.28403E-02    0.074127    0.806745E-05    0.997820        0.241878E-05
     9     20976.6       0.47672E-04  -0.18983E-02    0.049543    0.360363E-05    0.999722        0.108044E-05
    10     21256.5       0.47044E-04   0.18943E-03    0.004944    0.358832E-07    0.999741        0.107585E-07
    11     21623.9       0.46245E-04  -0.50392E-03    0.013151    0.253935E-06    0.999875        0.761346E-07
    12     21898.8       0.45665E-04  -0.48653E-03    0.012697    0.236707E-06     1.00000        0.709695E-07
 -----------------------------------------------------------------------------------------------------------------
   sum                                                            0.189449E-02                    0.568006E-03
 -----------------------------------------------------------------------------------------------------------------



          ***** PARTICIPATION FACTOR CALCULATION *****  Y  DIRECTION
                                                                                  CUMULATIVE     RATIO EFF.MASS
  MODE   FREQUENCY       PERIOD      PARTIC.FACTOR     RATIO    EFFECTIVE MASS   MASS FRACTION   TO TOTAL MASS
     1     20100.3       0.49750E-04  -0.32012E-02    0.036923    0.102476E-04    0.703247E-03    0.307242E-05
     2     20327.9       0.49193E-04  -0.62018E-01    0.715336    0.384625E-02    0.264656        0.115318E-02
     3     20346.7       0.49148E-04  -0.86698E-01    1.000000    0.751654E-02    0.780485        0.225361E-02
     4     20455.3       0.48887E-04   0.61291E-02    0.070695    0.375662E-04    0.783063        0.112631E-04
     5     20479.4       0.48830E-04   0.91319E-02    0.105330    0.833922E-04    0.788786        0.250026E-04
     6     20525.2       0.48721E-04   0.80280E-02    0.092597    0.644487E-04    0.793208        0.193230E-04
     7     20714.6       0.48275E-04   0.97087E-03    0.011198    0.942590E-06    0.793273        0.282607E-06
     8     20885.0       0.47881E-04  -0.50964E-01    0.587832    0.259732E-02    0.971516        0.778727E-03
     9     20976.6       0.47672E-04  -0.19871E-02    0.022919    0.394841E-05    0.971787        0.118381E-05
    10     21256.5       0.47044E-04  -0.13560E-02    0.015641    0.183885E-05    0.971913        0.551323E-06
    11     21623.9       0.46245E-04   0.20051E-02    0.023127    0.402038E-05    0.972189        0.120539E-05
    12     21898.8       0.45665E-04  -0.20131E-01    0.232195    0.405251E-03     1.00000        0.121502E-03
 -----------------------------------------------------------------------------------------------------------------
   sum                                                            0.145718E-01                    0.436890E-02
 -----------------------------------------------------------------------------------------------------------------



          ***** PARTICIPATION FACTOR CALCULATION *****  Z  DIRECTION
                                                                                  CUMULATIVE     RATIO EFF.MASS
  MODE   FREQUENCY       PERIOD      PARTIC.FACTOR     RATIO    EFFECTIVE MASS   MASS FRACTION   TO TOTAL MASS
     1     20100.3       0.49750E-04   0.36980E-03    0.020645    0.136755E-06    0.355175E-03    0.410017E-07
     2     20327.9       0.49193E-04  -0.12787E-02    0.071383    0.163496E-05    0.460143E-02    0.490192E-06
     3     20346.7       0.49148E-04  -0.23169E-02    0.129346    0.536822E-05    0.185436E-01    0.160950E-05
     4     20455.3       0.48887E-04  -0.17913E-01    1.000000    0.320864E-03    0.851882        0.962015E-04
     5     20479.4       0.48830E-04  -0.17305E-02    0.096608    0.299466E-05    0.859660        0.897857E-06
     6     20525.2       0.48721E-04   0.50413E-02    0.281438    0.254147E-04    0.925666        0.761984E-05
     7     20714.6       0.48275E-04  -0.18093E-02    0.101006    0.327352E-05    0.934168        0.981467E-06
     8     20885.0       0.47881E-04   0.33656E-02    0.187889    0.113272E-04    0.963587        0.339611E-05
     9     20976.6       0.47672E-04   0.36972E-03    0.020640    0.136692E-06    0.963942        0.409829E-07
    10     21256.5       0.47044E-04  -0.21753E-02    0.121438    0.473186E-05    0.976231        0.141870E-05
    11     21623.9       0.46245E-04   0.10176E-02    0.056809    0.103550E-05    0.978921        0.310463E-06
    12     21898.8       0.45665E-04   0.28489E-02    0.159044    0.811621E-05     1.00000        0.243340E-05
 -----------------------------------------------------------------------------------------------------------------
   sum                                                            0.385035E-03                    0.115441E-03
 -----------------------------------------------------------------------------------------------------------------



          ***** PARTICIPATION FACTOR CALCULATION *****ROTX DIRECTION
                                                                                  CUMULATIVE     RATIO EFF.MASS
  MODE   FREQUENCY       PERIOD      PARTIC.FACTOR     RATIO    EFFECTIVE MASS   MASS FRACTION   TO TOTAL MASS
     1     20100.3       0.49750E-04  -0.11077E-02    0.036900    0.122695E-05    0.702118E-03    0.135323E-04
     2     20327.9       0.49193E-04  -0.21472E-01    0.715305    0.461064E-03    0.264545        0.508517E-02
     3     20346.7       0.49148E-04  -0.30019E-01    1.000000    0.901111E-03    0.780205        0.993855E-02
     4     20455.3       0.48887E-04   0.21155E-02    0.070474    0.447545E-05    0.782766        0.493607E-04
     5     20479.4       0.48830E-04   0.31595E-02    0.105251    0.998235E-05    0.788478        0.110098E-03
     6     20525.2       0.48721E-04   0.27844E-02    0.092756    0.775295E-05    0.792915        0.855089E-04
     7     20714.6       0.48275E-04   0.33545E-03    0.011175    0.112528E-06    0.792979        0.124110E-05
     8     20885.0       0.47881E-04  -0.17658E-01    0.588234    0.311802E-03    0.971408        0.343894E-02
     9     20976.6       0.47672E-04  -0.68833E-03    0.022930    0.473805E-06    0.971679        0.522570E-05
    10     21256.5       0.47044E-04  -0.47108E-03    0.015693    0.221915E-06    0.971806        0.244755E-05
    11     21623.9       0.46245E-04   0.69594E-03    0.023184    0.484335E-06    0.972083        0.534183E-05
    12     21898.8       0.45665E-04  -0.69846E-02    0.232676    0.487844E-04     1.00000        0.538054E-03
 -----------------------------------------------------------------------------------------------------------------
   sum                                                            0.174749E-02                    0.192735E-01
 -----------------------------------------------------------------------------------------------------------------



          ***** PARTICIPATION FACTOR CALCULATION *****ROTY DIRECTION
                                                                                  CUMULATIVE     RATIO EFF.MASS
  MODE   FREQUENCY       PERIOD      PARTIC.FACTOR     RATIO    EFFECTIVE MASS   MASS FRACTION   TO TOTAL MASS
     1     20100.3       0.49750E-04   0.19763E-02    0.416378    0.390588E-05    0.910932E-01    0.201463E-04
     2     20327.9       0.49193E-04   0.85964E-03    0.181111    0.738978E-06    0.108328        0.381160E-05
     3     20346.7       0.49148E-04  -0.15198E-03    0.032019    0.230977E-07    0.108866        0.119136E-06
     4     20455.3       0.48887E-04   0.13661E-02    0.287815    0.186625E-05    0.152391        0.962599E-05
     5     20479.4       0.48830E-04   0.19977E-02    0.420888    0.399094E-05    0.245468        0.205850E-04
     6     20525.2       0.48721E-04   0.47465E-02    1.000000    0.225290E-04    0.770892        0.116203E-03
     7     20714.6       0.48275E-04  -0.30792E-02    0.648727    0.948126E-05    0.992015        0.489037E-04
     8     20885.0       0.47881E-04   0.45575E-03    0.096020    0.207712E-06    0.996859        0.107137E-05
     9     20976.6       0.47672E-04   0.23723E-03    0.049980    0.562774E-07    0.998171        0.290275E-06
    10     21256.5       0.47044E-04   0.18588E-03    0.039161    0.345499E-07    0.998977        0.178206E-06
    11     21623.9       0.46245E-04  -0.28547E-04    0.006014    0.814933E-09    0.998996        0.420337E-08
    12     21898.8       0.45665E-04   0.20746E-03    0.043708    0.430400E-07     1.00000        0.221997E-06
 -----------------------------------------------------------------------------------------------------------------
   sum                                                            0.428778E-04                    0.221161E-03
 -----------------------------------------------------------------------------------------------------------------



          ***** PARTICIPATION FACTOR CALCULATION *****ROTZ DIRECTION
                                                                                  CUMULATIVE     RATIO EFF.MASS
  MODE   FREQUENCY       PERIOD      PARTIC.FACTOR     RATIO    EFFECTIVE MASS   MASS FRACTION   TO TOTAL MASS
     1     20100.3       0.49750E-04  -0.27659E-03    0.014098    0.765021E-07    0.168087E-03    0.734650E-06
     2     20327.9       0.49193E-04   0.19346E-02    0.098607    0.374268E-05    0.839134E-02    0.359410E-04
     3     20346.7       0.49148E-04   0.30475E-02    0.155332    0.928728E-05    0.287969E-01    0.891857E-04
     4     20455.3       0.48887E-04   0.28606E-02    0.145803    0.818275E-05    0.467757E-01    0.785790E-04
     5     20479.4       0.48830E-04  -0.19619E-01    1.000000    0.384919E-03    0.892502        0.369637E-02
     6     20525.2       0.48721E-04   0.65617E-02    0.334453    0.430566E-04    0.987104        0.413472E-03
     7     20714.6       0.48275E-04   0.69120E-04    0.003523    0.477762E-08    0.987114        0.458794E-07
     8     20885.0       0.47881E-04   0.20994E-02    0.107006    0.440747E-05    0.996798        0.423249E-04
     9     20976.6       0.47672E-04   0.67536E-03    0.034423    0.456108E-06    0.997800        0.438000E-05
    10     21256.5       0.47044E-04  -0.12687E-03    0.006466    0.160955E-07    0.997836        0.154565E-06
    11     21623.9       0.46245E-04  -0.22224E-03    0.011327    0.493891E-07    0.997944        0.474283E-06
    12     21898.8       0.45665E-04   0.96729E-03    0.049303    0.935646E-06     1.00000        0.898501E-05
 -----------------------------------------------------------------------------------------------------------------
   sum                                                            0.455134E-03                    0.437065E-02
 -----------------------------------------------------------------------------------------------------------------





 *** NOTE ***                            CP =       1.888   TIME= 04:22:25
 The modes requested are mass normalized (Nrmkey on MODOPT).  However,   
 the modal masses and kinetic energies below are calculated with unit    
 normalized modes.                                                       

        ***** MODAL MASSES, KINETIC ENERGIES, AND TRANSLATIONAL EFFECTIVE MASSES SUMMARY *****

                                                                         EFFECTIVE MASS
  MODE  FREQUENCY   MODAL MASS     KENE      |      X-DIR      RATIO%   Y-DIR      RATIO%   Z-DIR      RATIO% 
     1  0.2010E+05  0.3256E-14  0.2597E-04   |    0.1889E-04    0.00  0.1025E-04    0.00  0.1368E-06    0.00
     2  0.2033E+05  0.7765E-15  0.6333E-05   |    0.4054E-04    0.00  0.3846E-02    0.12  0.1635E-05    0.00
     3  0.2035E+05  0.4372E-15  0.3573E-05   |    0.4861E-06    0.00  0.7517E-02    0.23  0.5368E-05    0.00
     4  0.2046E+05  0.3235E-15  0.2672E-05   |    0.8556E-04    0.00  0.3757E-04    0.00  0.3209E-03    0.01
     5  0.2048E+05  0.3436E-15  0.2844E-05   |    0.2433E-03    0.01  0.8339E-04    0.00  0.2995E-05    0.00
     6  0.2053E+05  0.1072E-14  0.8912E-05   |    0.1468E-02    0.04  0.6445E-04    0.00  0.2541E-04    0.00
     7  0.2071E+05  0.1816E-13  0.1538E-03   |    0.2536E-04    0.00  0.9426E-06    0.00  0.3274E-05    0.00
     8  0.2088E+05  0.1328E-14  0.1143E-04   |    0.8067E-05    0.00  0.2597E-02    0.08  0.1133E-04    0.00
     9  0.2098E+05  0.1618E-12  0.1405E-02   |    0.3604E-05    0.00  0.3948E-05    0.00  0.1367E-06    0.00
    10  0.2126E+05  0.1860E-13  0.1659E-03   |    0.3588E-07    0.00  0.1839E-05    0.00  0.4732E-05    0.00
    11  0.2162E+05  0.7366E-12  0.6799E-02   |    0.2539E-06    0.00  0.4020E-05    0.00  0.1035E-05    0.00
    12  0.2190E+05  0.9030E-14  0.8548E-04   |    0.2367E-06    0.00  0.4053E-03    0.01  0.8116E-05    0.00
 --------------------------------------------------------------------------------------------------------------
   sum                                       |    0.1894E-02    0.06  0.1457E-01    0.44  0.3850E-03    0.01
 --------------------------------------------------------------------------------------------------------------


 *** ANSYS BINARY FILE STATISTICS
  BUFFER SIZE USED= 16384
        1.688 MB WRITTEN ON ELEMENT SAVED DATA FILE: file0.esav
       10.375 MB WRITTEN ON ASSEMBLED MATRIX FILE: file0.full
        2.375 MB WRITTEN ON MODAL MATRIX FILE: file0.mode
        3.500 MB WRITTEN ON RESULTS FILE: file0.rst
 *************** Write FE CONNECTORS *********

 WRITE OUT CONSTRAINT EQUATIONS TO FILE= file.ce                                                                                                                                                                                                                                                             

 *GET  _NMODALSOLPROC  FROM  ACTI  ITEM=NUMC       VALUE=  2.00000000    

 FINISH SOLUTION PROCESSING


 ***** ROUTINE COMPLETED *****  CP =         1.950



 PRINTOUT RESUMED BY /GOP

 *GET  _WALLASOL  FROM  ACTI  ITEM=TIME WALL  VALUE=  4.37361111    

 *** ANSYS - ENGINEERING ANALYSIS SYSTEM  RELEASE Release 19.2     19.2     ***
 DISTRIBUTED ANSYS Academic Teaching Introductory              

 01055371  VERSION=WINDOWS x64   04:22:25  FEB 04, 2019 CP=      1.950

 DISPOSITIVO--Modal (A5)                                                       



          ***** ANSYS RESULTS INTERPRETATION (POST1) *****

 *** NOTE ***                            CP =       1.950   TIME= 04:22:25
 Reading results into the database (SET command) will update the current 
 displacement and force boundary conditions in the database with the     
 values from the results file for that load set.  Note that any          
 subsequent solutions will use these values unless action is taken to    
 either SAVE the current values or not overwrite them (/EXIT,NOSAVE).    

 PRINTOUT RESUMED BY /GOP

 Set Encoding of XML File to:ISO-8859-1

 Set Output of XML File to:
     PARM,     ,     ,     ,     ,     ,     ,     ,     ,     ,     ,     ,
         ,     ,     ,     ,     ,     ,     ,

 DATABASE WRITTEN ON FILE  parm.xml                                                                                                                                                                                                                                                            

 EXIT THE ANSYS POST1 DATABASE PROCESSOR


 ***** ROUTINE COMPLETED *****  CP =         1.950



 PRINTOUT RESUMED BY /GOP

 *GET  _WALLDONE  FROM  ACTI  ITEM=TIME WALL  VALUE=  4.37361111    

 PARAMETER _PREPTIME =     0.000000000    

 PARAMETER _SOLVTIME =     1.000000000    

 PARAMETER _POSTTIME =     0.000000000    

 PARAMETER _TOTALTIM =     1.000000000    

 EXIT ANSYS WITHOUT SAVING DATABASE


 NUMBER OF WARNING MESSAGES ENCOUNTERED=          3
 NUMBER OF ERROR   MESSAGES ENCOUNTERED=          0

+--------- D I S T R I B U T E D   A N S Y S   S T A T I S T I C S ------------+

Release: Release 19.2       Build: 19.2       Update: UP20180808   Platform: WINDOWS x64 
Date Run: 02/04/2019   Time: 04:22     Process ID: 6996
Operating System: Windows 7 Service Pack 1 (Build: 7601)

Processor Model: Intel(R) Core(TM) i7-4790 CPU @ 3.60GHz

Compiler: Intel(R) FORTRAN Compiler Version 17.0.4  (Build: 20170411)
          Intel(R) C/C++ Compiler Version 17.0.4  (Build: 20170411)
          Intel(R) Math Kernel Library Version 2017.0.3 Product Build 20170413

Number of machines requested            :    1
Total number of cores available         :    8
Number of physical cores available      :    4
Number of processes requested           :    2
Number of threads per process requested :    1
Total number of cores requested         :    2 (Distributed Memory Parallel)               
MPI Type: INTELMPI
MPI Version: Intel(R) MPI Library 2017 Update 3 for Windows* OS


GPU Acceleration: Not Requested

Job Name: file0
Input File: dummy.dat

  Core                Machine Name   Working Directory
 -----------------------------------------------------
     0                 chandler-PC   C:\Users\chandler\Documents\analise_harmonica_transportador\_ProjectScratch\Scr25A4
     1                 chandler-PC   C:\Users\chandler\Documents\analise_harmonica_transportador\_ProjectScratch\Scr25A4
 
Latency time from master to core     1 =    0.521 microseconds
 
Communication speed from master to core     1 =  5582.99 MB/sec

Total CPU time for main thread                    :        1.8 seconds
Total CPU time summed for all threads             :        2.0 seconds

Elapsed time spent pre-processing model (/PREP7)  :        0.0 seconds
Elapsed time spent solution - preprocessing       :        0.1 seconds
Elapsed time spent computing solution             :        1.3 seconds
Elapsed time spent solution - postprocessing      :        0.0 seconds
Elapsed time spent post-processing model (/POST1) :        0.0 seconds
 
Eigensolver used                                  :            Block Lanczos
Equation solver computational rate                :       21.1 Gflops
Equation solver effective I/O rate                :        7.6 GB/sec

Maximum total memory used                         :      376.0 MB
Maximum total memory allocated                    :     3136.0 MB
Total physical memory available                   :         16 GB

Total amount of I/O written to disk               :        0.0 GB
Total amount of I/O read from disk                :        0.0 GB

+------ E N D   D I S T R I B U T E D   A N S Y S   S T A T I S T I C S -------+


 *---------------------------------------------------------------------------*
 |                                                                           |
 |                       DISTRIBUTED ANSYS RUN COMPLETED                     |
 |                                                                           |
 |---------------------------------------------------------------------------|
 |                                                                           |
 | Ansys Release 19.2          Build 19.2         UP20180808     WINDOWS x64 |
 |                                                                           |
 |---------------------------------------------------------------------------|
 |                                                                           |
 | Database Requested(-db)  1024 MB    Scratch Memory Requested      1024 MB |
 | Maximum Database Used       7 MB    Maximum Scratch Memory Used    185 MB |
 |                                                                           |
 |---------------------------------------------------------------------------|
 |                                                                           |
 |        CP Time      (sec) =          1.966       Time  =  04:22:25        |
 |        Elapsed Time (sec) =          3.000       Date  =  02/04/2019      |
 |                                                                           |
 *---------------------------------------------------------------------------*
