
 ANSYS Academic Teaching Introductory              


 *------------------------------------------------------------------*
 |                                                                  |
 |   W E L C O M E   T O   T H E   A N S Y S (R)  P R O G R A M     |
 |                                                                  |
 *------------------------------------------------------------------*




 ***************************************************************
 *            ANSYS Release 19.2     LEGAL NOTICES             *
 ***************************************************************
 *                                                             *
 * Copyright 1971-2018 ANSYS, Inc.  All rights reserved.       *
 * Unauthorized use, distribution or duplication is            *
 * prohibited.                                                 *
 *                                                             *
 * Ansys is a registered trademark of ANSYS, Inc. or its       *
 * subsidiaries in the United States or other countries.       *
 * See the ANSYS, Inc. online documentation or the ANSYS, Inc. *
 * documentation CD or online help for the complete Legal      *
 * Notice.                                                     *
 *                                                             *
 ***************************************************************
 *                                                             *
 * THIS ANSYS SOFTWARE PRODUCT AND PROGRAM DOCUMENTATION       *
 * INCLUDE TRADE SECRETS AND CONFIDENTIAL AND PROPRIETARY      *
 * PRODUCTS OF ANSYS, INC., ITS SUBSIDIARIES, OR LICENSORS.    *
 * The software products and documentation are furnished by    *
 * ANSYS, Inc. or its subsidiaries under a software license    *
 * agreement that contains provisions concerning               *
 * non-disclosure, copying, length and nature of use,          *
 * compliance with exporting laws, warranties, disclaimers,    *
 * limitations of liability, and remedies, and other           *
 * provisions.  The software products and documentation may be *
 * used, disclosed, transferred, or copied only in accordance  *
 * with the terms and conditions of that software license      *
 * agreement.                                                  *
 *                                                             *
 * ANSYS, Inc. is a UL registered                              *
 * ISO 9001:2008 company.                                      *
 *                                                             *
 ***************************************************************
 *                                                             *
 * This product is subject to U.S. laws governing export and   *
 * re-export.                                                  *
 *                                                             *
 * For U.S. Government users, except as specifically granted   *
 * by the ANSYS, Inc. software license agreement, the use,     *
 * duplication, or disclosure by the United States Government  *
 * is subject to restrictions stated in the ANSYS, Inc.        *
 * software license agreement and FAR 12.212 (for non-DOD      *
 * licenses).                                                  *
 *                                                             *
 ***************************************************************

 Release 19.2
     
 Point Releases and Patches installed:   
     
 Academic Student Release 19.2   
 FENSAP-ICE Release 19.2 


          *****  ANSYS COMMAND LINE ARGUMENTS  *****
  BATCH MODE REQUESTED (-b)    = NOLIST
  INPUT FILE COPY MODE (-c)    = COPY
  DISTRIBUTED MEMORY PARALLEL REQUESTED
       2 PARALLEL PROCESSES REQUESTED WITH SINGLE THREAD PER PROCESS
    TOTAL OF     2 CORES REQUESTED
  DESIGNXPLORER REQUESTED
  MPI OPTION                   = INTELMPI
  INPUT FILE NAME              = C:\Users\chandler\Documents\analise_harmonica_transportador\_ProjectScratch\Scr2B18\dummy.dat
  OUTPUT FILE NAME             = C:\Users\chandler\Documents\analise_harmonica_transportador\_ProjectScratch\Scr2B18\solve.out
  START-UP FILE MODE           = NOREAD
  STOP FILE MODE               = NOREAD

 RELEASE= Release 19.2         BUILD= 19.2      UP20180808   VERSION=WINDOWS x64 
 CURRENT JOBNAME=file0  04:52:10  FEB 12, 2019 CP=      0.094


 PARAMETER _DS_PROGRESS =     999.0000000    

 /INPUT FILE= ds.dat  LINE=       0



 *** NOTE ***                            CP =       0.187   TIME= 04:52:10
 The /CONFIG,NOELDB command is not valid in a Distributed ANSYS          
 solution.  Command is ignored.                                          

 *GET  _WALLSTRT  FROM  ACTI  ITEM=TIME WALL  VALUE=  4.86944444    

 TITLE= 
 DISPOSITIVO--Modal (A5)                                                       


 SET PARAMETER DIMENSIONS ON  _WB_PROJECTSCRATCH_DIR
  TYPE=STRI  DIMENSIONS=      248        1        1

 PARAMETER _WB_PROJECTSCRATCH_DIR(1) = C:\Users\chandler\Documents\analise_harmonica_transportador\_ProjectScratch\Scr2B18\

 SET PARAMETER DIMENSIONS ON  _WB_SOLVERFILES_DIR
  TYPE=STRI  DIMENSIONS=      248        1        1

 PARAMETER _WB_SOLVERFILES_DIR(1) = C:\Users\chandler\Documents\analise_harmonica_transportador\DISPOSITIVO_files\dp0\SYS\MECH\

 SET PARAMETER DIMENSIONS ON  _WB_USERFILES_DIR
  TYPE=STRI  DIMENSIONS=      248        1        1

 PARAMETER _WB_USERFILES_DIR(1) = C:\Users\chandler\Documents\analise_harmonica_transportador\DISPOSITIVO_files\user_files\
 --- Data in consistent MKS units. See Solving Units in the help system for more

 MKS UNITS SPECIFIED FOR INTERNAL    
  LENGTH        (l)  = METER (M)
  MASS          (M)  = KILOGRAM (KG)
  TIME          (t)  = SECOND (SEC)
  TEMPERATURE   (T)  = CELSIUS (C)
  TOFFSET            = 273.0
  CHARGE        (Q)  = COULOMB
  FORCE         (f)  = NEWTON (N) (KG-M/SEC2)
  HEAT               = JOULE (N-M)

  PRESSURE           = PASCAL (NEWTON/M**2)
  ENERGY        (W)  = JOULE (N-M)
  POWER         (P)  = WATT (N-M/SEC)
  CURRENT       (i)  = AMPERE (COULOMBS/SEC)
  CAPACITANCE   (C)  = FARAD
  INDUCTANCE    (L)  = HENRY
  MAGNETIC FLUX      = WEBER
  RESISTANCE    (R)  = OHM
  ELECTRIC POTENTIAL = VOLT

 INPUT  UNITS ARE ALSO SET TO MKS 

 *** ANSYS - ENGINEERING ANALYSIS SYSTEM  RELEASE Release 19.2     19.2     ***
 DISTRIBUTED ANSYS Academic Teaching Introductory              

 01055371  VERSION=WINDOWS x64   04:52:10  FEB 12, 2019 CP=      0.187

 DISPOSITIVO--Modal (A5)                                                       



          ***** ANSYS ANALYSIS DEFINITION (PREP7) *****
 *********** Nodes for the whole assembly ***********
 *********** Elements for Body 1 "SYS\Viga de Alum_nio" ***********
 *********** Elements for Body 2 "Bra_o1\Pe_a de alum_nio" ***********
 *********** Elements for Body 3 "Bra_o1\Cer_mica1" ***********
 *********** Elements for Body 4 "Bra_o1\Cer_mica2" ***********
 *********** Elements for Body 5 "Bra_o1\Base de alum_nio" ***********
 *********** Elements for Body 6 "Bra_o2\Pe_a de alum_nio" ***********
 *********** Elements for Body 7 "Bra_o2\Cer_mica1" ***********
 *********** Elements for Body 8 "Bra_o2\Cer_mica2" ***********
 *********** Elements for Body 9 "Bra_o2\Base de alum_nio" ***********
 *********** Send User Defined Coordinate System(s) ***********
 *********** Set Reference Temperature ***********
 *********** Send Materials ***********
 *********** Create Contact "Contact Region" ***********
             Real Constant Set For Above Contact Is 11 & 10
 *********** Create Contact "Contact Region 2" ***********
             Real Constant Set For Above Contact Is 13 & 12
 *********** Create Contact "Contact Region 3" ***********
             Real Constant Set For Above Contact Is 15 & 14
 *********** Create Contact "Contact Region 4" ***********
             Real Constant Set For Above Contact Is 17 & 16
 *********** Create Contact "Contact Region 5" ***********
             Real Constant Set For Above Contact Is 19 & 18
 *********** Create Contact "Contact Region 6" ***********
             Real Constant Set For Above Contact Is 21 & 20
 *********** Create Contact "Contact Region 7" ***********
             Real Constant Set For Above Contact Is 23 & 22
 *********** Create Contact "Contact Region 8" ***********
             Real Constant Set For Above Contact Is 25 & 24
 *********** Fixed Supports ***********


 ***** ROUTINE COMPLETED *****  CP =         0.281


 --- Number of total nodes = 18462
 --- Number of contact elements = 558
 --- Number of spring elements = 0
 --- Number of bearing elements = 0
 --- Number of solid elements = 9187
 --- Number of condensed parts = 0
 --- Number of total elements = 9745

 *GET  _WALLBSOL  FROM  ACTI  ITEM=TIME WALL  VALUE=  4.86944444    

 *****  ANSYS SOLUTION ROUTINE  *****


 PERFORM A MODAL ANALYSIS
  THIS WILL BE A NEW ANALYSIS


 USE SYM. BLOCK LANCZOS MODE EXTRACTION METHOD
  EXTRACT   14 MODES
  EXTRACT FREQUENCIES IN THE RANGE   20000.     TO   22000.    
  NORMALIZE THE MODE SHAPES TO THE MASS MATRIX

 ERASE THE CURRENT DATABASE OUTPUT CONTROL TABLE.


 WRITE ALL  ITEMS TO THE DATABASE WITH A FREQUENCY OF NONE
   FOR ALL APPLICABLE ENTITIES

 WRITE NSOL ITEMS TO THE DATABASE WITH A FREQUENCY OF ALL 
   FOR ALL APPLICABLE ENTITIES


 EXPAND ALL EXTRACTED MODES
  DO NOT CALCULATE ELEMENT RESULTS

 DO NOT COMBINE ELEMENT SAVE DATA FILES (.esav) AFTER DISTRIBUTED PARALLEL SOLUTION

 DO NOT COMBINE ELEMENT MATRIX FILES (.emat) AFTER DISTRIBUTED PARALLEL SOLUTION

 DO NOT COMBINE ASSEMBLED MATRIX FILES (.full) AFTER DISTRIBUTED PARALLEL SOLUTION

 *** WARNING ***                         CP =       0.281   TIME= 04:52:10
 Specified range of 0 to 0 is not permitted.  The D command is ignored.  

 *** WARNING ***                         CP =       0.281   TIME= 04:52:10
 Specified range of 0 to 0 is not permitted.  The D command is ignored.  

 *GET  ANSINTER_  FROM  ACTI  ITEM=INT        VALUE=  0.00000000    

 *IF  ANSINTER_                         ( =   0.00000     )  NE  
      0                                 ( =   0.00000     )  THEN    

 *ENDIF

 *** NOTE ***                            CP =       0.281   TIME= 04:52:10
 The automatic domain decomposition logic has selected the MESH domain   
 decomposition method with 2 processes per solution.                     

 *****  ANSYS SOLVE    COMMAND  *****

 *** WARNING ***                         CP =       0.281   TIME= 04:52:10
 Element shape checking is currently inactive.  Issue SHPP,ON or         
 SHPP,WARN to reactivate, if desired.                                    

 *** NOTE ***                            CP =       0.312   TIME= 04:52:10
 The model data was checked and warning messages were found.             
  Please review output or errors file (                                  
 C:\Users\chandler\Documents\analise_harmonica_transportador\_ProjectScr 
 ratch\Scr2B18\file0.err ) for these warning messages.                   

 *** SELECTION OF ELEMENT TECHNOLOGIES FOR APPLICABLE ELEMENTS ***
      --- GIVE SUGGESTIONS AND RESET THE KEY OPTIONS ---

 ELEMENT TYPE    1 IS SOLID187. IT IS NOT ASSOCIATED WITH FULLY INCOMPRESSIBLE
 HYPERELASTIC MATERIALS. NO SUGGESTION IS AVAILABLE AND NO RESETTING IS NEEDED.

 ELEMENT TYPE    2 IS SOLID187. IT IS NOT ASSOCIATED WITH FULLY INCOMPRESSIBLE
 HYPERELASTIC MATERIALS. NO SUGGESTION IS AVAILABLE AND NO RESETTING IS NEEDED.

 ELEMENT TYPE    3 IS SOLID187. IT IS NOT ASSOCIATED WITH FULLY INCOMPRESSIBLE
 HYPERELASTIC MATERIALS. NO SUGGESTION IS AVAILABLE AND NO RESETTING IS NEEDED.

 ELEMENT TYPE    4 IS SOLID187. IT IS NOT ASSOCIATED WITH FULLY INCOMPRESSIBLE
 HYPERELASTIC MATERIALS. NO SUGGESTION IS AVAILABLE AND NO RESETTING IS NEEDED.

 ELEMENT TYPE    5 IS SOLID187. IT IS NOT ASSOCIATED WITH FULLY INCOMPRESSIBLE
 HYPERELASTIC MATERIALS. NO SUGGESTION IS AVAILABLE AND NO RESETTING IS NEEDED.

 ELEMENT TYPE    6 IS SOLID187. IT IS NOT ASSOCIATED WITH FULLY INCOMPRESSIBLE
 HYPERELASTIC MATERIALS. NO SUGGESTION IS AVAILABLE AND NO RESETTING IS NEEDED.

 ELEMENT TYPE    7 IS SOLID187. IT IS NOT ASSOCIATED WITH FULLY INCOMPRESSIBLE
 HYPERELASTIC MATERIALS. NO SUGGESTION IS AVAILABLE AND NO RESETTING IS NEEDED.

 ELEMENT TYPE    8 IS SOLID187. IT IS NOT ASSOCIATED WITH FULLY INCOMPRESSIBLE
 HYPERELASTIC MATERIALS. NO SUGGESTION IS AVAILABLE AND NO RESETTING IS NEEDED.

 ELEMENT TYPE    9 IS SOLID187. IT IS NOT ASSOCIATED WITH FULLY INCOMPRESSIBLE
 HYPERELASTIC MATERIALS. NO SUGGESTION IS AVAILABLE AND NO RESETTING IS NEEDED.



 *** ANSYS - ENGINEERING ANALYSIS SYSTEM  RELEASE Release 19.2     19.2     ***
 DISTRIBUTED ANSYS Academic Teaching Introductory              

 01055371  VERSION=WINDOWS x64   04:52:10  FEB 12, 2019 CP=      0.312

 DISPOSITIVO--Modal (A5)                                                       



                       S O L U T I O N   O P T I O N S

   PROBLEM DIMENSIONALITY. . . . . . . . . . . . .3-D                  
   DEGREES OF FREEDOM. . . . . . UX   UY   UZ  
   ANALYSIS TYPE . . . . . . . . . . . . . . . . .MODAL                
      EXTRACTION METHOD. . . . . . . . . . . . . .BLOCK LANCZOS
   OFFSET TEMPERATURE FROM ABSOLUTE ZERO . . . . .  273.15    
   NUMBER OF MODES TO EXTRACT. . . . . . . . . . .    14
   MODAL EXTRACTION RANGE. . . . . . . . . . . . .  20000.     TO   22000.    
   GLOBALLY ASSEMBLED MATRIX . . . . . . . . . . .SYMMETRIC  
   NUMBER OF MODES TO EXPAND . . . . . . . . . . .ALL
   ELEMENT RESULTS CALCULATION . . . . . . . . . .OFF

 *** NOTE ***                            CP =       0.312   TIME= 04:52:10
 Poisson's ratio PR input has been converted to NU input.                

 *** NOTE ***                            CP =       0.312   TIME= 04:52:10
 The conditions for direct assembly have been met.  No .emat or .erot    
 files will be produced.                                                 

 *** NOTE ***                            CP =       0.374   TIME= 04:52:10
 Symmetric Deformable- deformable contact pair identified by real        
 constant set 10 and contact element type 10 has been set up.  The       
 companion pair has real constant set ID 11.  Both pairs should have     
 the same behavior.                                                      
 ANSYS will keep the current pair and deactivate its companion pair,     
 resulting in asymmetric contact.                                        
 Linear contact is defined
 Contact algorithm: Augmented Lagrange method
 Contact detection at: Gauss integration point
 Contact stiffness factor FKN                  10.000    
 The resulting initial contact stiffness      0.21204E+16
 Default penetration tolerance factor FTOLN   0.10000    
 The resulting penetration tolerance          0.66025E-03
 Default opening contact stiffness OPSF will be used.
 Default tangent stiffness factor FKT          1.0000    
 Use constant contact stiffness
 Default Max. friction stress TAUMAX          0.10000E+21
 Average contact surface length               0.96435E-02
 Average contact pair depth                   0.66025E-02
 Default pinball region factor PINB           0.25000    
 The resulting pinball region                 0.16506E-02
 Initial penetration/gap is excluded.
 Bonded contact (always) is defined.

 *** NOTE ***                            CP =       0.374   TIME= 04:52:10
 Max.  Initial penetration 5.551115123E-17 was detected between contact  
 element 9195 and target element 9215.                                   
 ****************************************
  

 *** NOTE ***                            CP =       0.374   TIME= 04:52:10
 Symmetric Deformable- deformable contact pair identified by real        
 constant set 11 and contact element type 10 has been set up.  The       
 companion pair has real constant set ID 10.  Both pairs should have     
 the same behavior.                                                      
 ANSYS will deactivate the current pair and keep its companion pair,     
 resulting in asymmetric contact.                                        
 Linear contact is defined
 Contact algorithm: Augmented Lagrange method
 Contact detection at: Gauss integration point
 Contact stiffness factor FKN                  10.000    
 The resulting initial contact stiffness      0.21204E+16
 Default penetration tolerance factor FTOLN   0.10000    
 The resulting penetration tolerance          0.63201E-03
 Default opening contact stiffness OPSF will be used.
 Default tangent stiffness factor FKT          1.0000    
 Use constant contact stiffness
 Default Max. friction stress TAUMAX          0.10000E+21
 Average contact surface length               0.95657E-02
 Average contact pair depth                   0.63201E-02
 Default pinball region factor PINB           0.25000    
 The resulting pinball region                 0.15800E-02
 Initial penetration/gap is excluded.
 Bonded contact (always) is defined.

 *** NOTE ***                            CP =       0.374   TIME= 04:52:10
 Max.  Initial penetration 5.551115123E-17 was detected between contact  
 element 9202 and target element 9193.                                   
 ****************************************
  

 *** NOTE ***                            CP =       0.374   TIME= 04:52:10
 Symmetric Deformable- deformable contact pair identified by real        
 constant set 12 and contact element type 12 has been set up.  The       
 companion pair has real constant set ID 13.  Both pairs should have     
 the same behavior.                                                      
 ANSYS will keep the current pair and deactivate its companion pair,     
 resulting in asymmetric contact.                                        
 Linear contact is defined
 Contact algorithm: Augmented Lagrange method
 Contact detection at: Gauss integration point
 Contact stiffness factor FKN                  10.000    
 The resulting initial contact stiffness      0.26407E+16
 Default penetration tolerance factor FTOLN   0.10000    
 The resulting penetration tolerance          0.53016E-03
 Default opening contact stiffness OPSF will be used.
 Default tangent stiffness factor FKT          1.0000    
 Use constant contact stiffness
 Default Max. friction stress TAUMAX          0.10000E+21
 Average contact surface length               0.51675E-02
 Average contact pair depth                   0.53016E-02
 Default pinball region factor PINB           0.25000    
 The resulting pinball region                 0.13254E-02
 Initial penetration/gap is excluded.
 Bonded contact (always) is defined.

 *** NOTE ***                            CP =       0.374   TIME= 04:52:10
 Max.  Initial penetration 4.33680869E-19 was detected between contact   
 element 9243 and target element 9364.                                   
 ****************************************
  

 *** NOTE ***                            CP =       0.374   TIME= 04:52:10
 Symmetric Deformable- deformable contact pair identified by real        
 constant set 13 and contact element type 12 has been set up.  The       
 companion pair has real constant set ID 12.  Both pairs should have     
 the same behavior.                                                      
 ANSYS will deactivate the current pair and keep its companion pair,     
 resulting in asymmetric contact.                                        
 Linear contact is defined
 Contact algorithm: Augmented Lagrange method
 Contact detection at: Gauss integration point
 Contact stiffness factor FKN                  10.000    
 The resulting initial contact stiffness      0.26407E+16
 Default penetration tolerance factor FTOLN   0.10000    
 The resulting penetration tolerance          0.30000E-03
 Default opening contact stiffness OPSF will be used.
 Default tangent stiffness factor FKT          1.0000    
 Use constant contact stiffness
 Default Max. friction stress TAUMAX          0.10000E+21
 Average contact surface length               0.46538E-02
 Average contact pair depth                   0.30000E-02
 Default pinball region factor PINB           0.25000    
 The resulting pinball region                 0.75000E-03
 Initial penetration/gap is excluded.
 Bonded contact (always) is defined.

 *** NOTE ***                            CP =       0.374   TIME= 04:52:10
 Max.  Initial penetration 2.168404345E-19 was detected between contact  
 element 9268 and target element 9216.                                   
 ****************************************
  

 *** NOTE ***                            CP =       0.374   TIME= 04:52:10
 Symmetric Deformable- deformable contact pair identified by real        
 constant set 14 and contact element type 14 has been set up.  The       
 companion pair has real constant set ID 15.  Both pairs should have     
 the same behavior.                                                      
 ANSYS will deactivate the current pair and keep its companion pair,     
 resulting in asymmetric contact.                                        
 Linear contact is defined
 Contact algorithm: Augmented Lagrange method
 Contact detection at: Gauss integration point
 Contact stiffness factor FKN                  10.000    
 The resulting initial contact stiffness      0.36517E+16
 Default penetration tolerance factor FTOLN   0.10000    
 The resulting penetration tolerance          0.63210E-03
 Default opening contact stiffness OPSF will be used.
 Default tangent stiffness factor FKT          1.0000    
 Use constant contact stiffness
 Default Max. friction stress TAUMAX          0.10000E+21
 Average contact surface length               0.96401E-02
 Average contact pair depth                   0.63210E-02
 Default pinball region factor PINB           0.25000    
 The resulting pinball region                 0.15803E-02
 Initial penetration/gap is excluded.
 Bonded contact (always) is defined.

 *** NOTE ***                            CP =       0.374   TIME= 04:52:10
 Max.  Initial penetration 5.551115123E-17 was detected between contact  
 element 9439 and target element 9451.                                   
 ****************************************
  

 *** NOTE ***                            CP =       0.374   TIME= 04:52:10
 Symmetric Deformable- deformable contact pair identified by real        
 constant set 15 and contact element type 14 has been set up.  The       
 companion pair has real constant set ID 14.  Both pairs should have     
 the same behavior.                                                      
 ANSYS will keep the current pair and deactivate its companion pair,     
 resulting in asymmetric contact.                                        
 Linear contact is defined
 Contact algorithm: Augmented Lagrange method
 Contact detection at: Gauss integration point
 Contact stiffness factor FKN                  10.000    
 The resulting initial contact stiffness      0.36517E+16
 Default penetration tolerance factor FTOLN   0.10000    
 The resulting penetration tolerance          0.62775E-03
 Default opening contact stiffness OPSF will be used.
 Default tangent stiffness factor FKT          1.0000    
 Use constant contact stiffness
 Default Max. friction stress TAUMAX          0.10000E+21
 Average contact surface length               0.95474E-02
 Average contact pair depth                   0.62775E-02
 Default pinball region factor PINB           0.25000    
 The resulting pinball region                 0.15694E-02
 Initial penetration/gap is excluded.
 Bonded contact (always) is defined.

 *** NOTE ***                            CP =       0.374   TIME= 04:52:10
 Max.  Initial penetration 5.551115123E-17 was detected between contact  
 element 9443 and target element 9434.                                   
 ****************************************
  

 *** NOTE ***                            CP =       0.374   TIME= 04:52:10
 Symmetric Deformable- deformable contact pair identified by real        
 constant set 16 and contact element type 16 has been set up.  The       
 companion pair has real constant set ID 17.  Both pairs should have     
 the same behavior.                                                      
 ANSYS will deactivate the current pair and keep its companion pair,     
 resulting in asymmetric contact.                                        
 Linear contact is defined
 Contact algorithm: Augmented Lagrange method
 Contact detection at: Gauss integration point
 Contact stiffness factor FKN                  10.000    
 The resulting initial contact stiffness      0.23217E+16
 Default penetration tolerance factor FTOLN   0.10000    
 The resulting penetration tolerance          0.64080E-03
 Default opening contact stiffness OPSF will be used.
 Default tangent stiffness factor FKT          1.0000    
 Use constant contact stiffness
 Default Max. friction stress TAUMAX          0.10000E+21
 Average contact surface length               0.95937E-02
 Average contact pair depth                   0.64080E-02
 Default pinball region factor PINB           0.25000    
 The resulting pinball region                 0.16020E-02
 Initial penetration/gap is excluded.
 Bonded contact (always) is defined.

 *** NOTE ***                            CP =       0.374   TIME= 04:52:10
 Max.  Initial penetration 5.551115123E-17 was detected between contact  
 element 9465 and target element 9480.                                   
 ****************************************
  

 *** NOTE ***                            CP =       0.374   TIME= 04:52:10
 Symmetric Deformable- deformable contact pair identified by real        
 constant set 17 and contact element type 16 has been set up.  The       
 companion pair has real constant set ID 16.  Both pairs should have     
 the same behavior.                                                      
 ANSYS will keep the current pair and deactivate its companion pair,     
 resulting in asymmetric contact.                                        
 Linear contact is defined
 Contact algorithm: Augmented Lagrange method
 Contact detection at: Gauss integration point
 Contact stiffness factor FKN                  10.000    
 The resulting initial contact stiffness      0.23217E+16
 Default penetration tolerance factor FTOLN   0.10000    
 The resulting penetration tolerance          0.60301E-03
 Default opening contact stiffness OPSF will be used.
 Default tangent stiffness factor FKT          1.0000    
 Use constant contact stiffness
 Default Max. friction stress TAUMAX          0.10000E+21
 Average contact surface length               0.95011E-02
 Average contact pair depth                   0.60301E-02
 Default pinball region factor PINB           0.25000    
 The resulting pinball region                 0.15075E-02
 Initial penetration/gap is excluded.
 Bonded contact (always) is defined.

 *** NOTE ***                            CP =       0.374   TIME= 04:52:10
 Max.  Initial penetration 5.551115123E-17 was detected between contact  
 element 9476 and target element 9462.                                   
 ****************************************
  

 *** NOTE ***                            CP =       0.374   TIME= 04:52:10
 Symmetric Deformable- deformable contact pair identified by real        
 constant set 18 and contact element type 18 has been set up.  The       
 companion pair has real constant set ID 19.  Both pairs should have     
 the same behavior.                                                      
 ANSYS will keep the current pair and deactivate its companion pair,     
 resulting in asymmetric contact.                                        
 Linear contact is defined
 Contact algorithm: Augmented Lagrange method
 Contact detection at: Gauss integration point
 Contact stiffness factor FKN                  10.000    
 The resulting initial contact stiffness      0.21204E+16
 Default penetration tolerance factor FTOLN   0.10000    
 The resulting penetration tolerance          0.66025E-03
 Default opening contact stiffness OPSF will be used.
 Default tangent stiffness factor FKT          1.0000    
 Use constant contact stiffness
 Default Max. friction stress TAUMAX          0.10000E+21
 Average contact surface length               0.95451E-02
 Average contact pair depth                   0.66025E-02
 Default pinball region factor PINB           0.25000    
 The resulting pinball region                 0.16506E-02
 Initial penetration/gap is excluded.
 Bonded contact (always) is defined.

 *** NOTE ***                            CP =       0.374   TIME= 04:52:10
 Max.  Initial penetration 5.551115123E-17 was detected between contact  
 element 9492 and target element 9511.                                   
 ****************************************
  

 *** NOTE ***                            CP =       0.374   TIME= 04:52:10
 Symmetric Deformable- deformable contact pair identified by real        
 constant set 19 and contact element type 18 has been set up.  The       
 companion pair has real constant set ID 18.  Both pairs should have     
 the same behavior.                                                      
 ANSYS will deactivate the current pair and keep its companion pair,     
 resulting in asymmetric contact.                                        
 Linear contact is defined
 Contact algorithm: Augmented Lagrange method
 Contact detection at: Gauss integration point
 Contact stiffness factor FKN                  10.000    
 The resulting initial contact stiffness      0.21204E+16
 Default penetration tolerance factor FTOLN   0.10000    
 The resulting penetration tolerance          0.63201E-03
 Default opening contact stiffness OPSF will be used.
 Default tangent stiffness factor FKT          1.0000    
 Use constant contact stiffness
 Default Max. friction stress TAUMAX          0.10000E+21
 Average contact surface length               0.95657E-02
 Average contact pair depth                   0.63201E-02
 Default pinball region factor PINB           0.25000    
 The resulting pinball region                 0.15800E-02
 Initial penetration/gap is excluded.
 Bonded contact (always) is defined.

 *** NOTE ***                            CP =       0.374   TIME= 04:52:10
 Max.  Initial penetration 5.551115123E-17 was detected between contact  
 element 9498 and target element 9489.                                   
 ****************************************
  

 *** NOTE ***                            CP =       0.374   TIME= 04:52:10
 Symmetric Deformable- deformable contact pair identified by real        
 constant set 20 and contact element type 20 has been set up.  The       
 companion pair has real constant set ID 21.  Both pairs should have     
 the same behavior.                                                      
 ANSYS will keep the current pair and deactivate its companion pair,     
 resulting in asymmetric contact.                                        
 Linear contact is defined
 Contact algorithm: Augmented Lagrange method
 Contact detection at: Gauss integration point
 Contact stiffness factor FKN                  10.000    
 The resulting initial contact stiffness      0.27457E+16
 Default penetration tolerance factor FTOLN   0.10000    
 The resulting penetration tolerance          0.50988E-03
 Default opening contact stiffness OPSF will be used.
 Default tangent stiffness factor FKT          1.0000    
 Use constant contact stiffness
 Default Max. friction stress TAUMAX          0.10000E+21
 Average contact surface length               0.56749E-02
 Average contact pair depth                   0.50988E-02
 Default pinball region factor PINB           0.25000    
 The resulting pinball region                 0.12747E-02
 Initial penetration/gap is excluded.
 Bonded contact (always) is defined.

 *** NOTE ***                            CP =       0.374   TIME= 04:52:10
 Max.  Initial penetration 4.33680869E-19 was detected between contact   
 element 9544 and target element 9630.                                   
 ****************************************
  

 *** NOTE ***                            CP =       0.374   TIME= 04:52:10
 Symmetric Deformable- deformable contact pair identified by real        
 constant set 21 and contact element type 20 has been set up.  The       
 companion pair has real constant set ID 20.  Both pairs should have     
 the same behavior.                                                      
 ANSYS will deactivate the current pair and keep its companion pair,     
 resulting in asymmetric contact.                                        
 Linear contact is defined
 Contact algorithm: Augmented Lagrange method
 Contact detection at: Gauss integration point
 Contact stiffness factor FKN                  10.000    
 The resulting initial contact stiffness      0.27457E+16
 Default penetration tolerance factor FTOLN   0.10000    
 The resulting penetration tolerance          0.28811E-03
 Default opening contact stiffness OPSF will be used.
 Default tangent stiffness factor FKT          1.0000    
 Use constant contact stiffness
 Default Max. friction stress TAUMAX          0.10000E+21
 Average contact surface length               0.53034E-02
 Average contact pair depth                   0.28811E-02
 Default pinball region factor PINB           0.25000    
 The resulting pinball region                 0.72027E-03
 Initial penetration/gap is excluded.
 Bonded contact (always) is defined.

 *** NOTE ***                            CP =       0.374   TIME= 04:52:10
 Max.  Initial penetration 2.168404345E-19 was detected between contact  
 element 9557 and target element 9513.                                   
 ****************************************
  

 *** NOTE ***                            CP =       0.374   TIME= 04:52:10
 Symmetric Deformable- deformable contact pair identified by real        
 constant set 22 and contact element type 22 has been set up.  The       
 companion pair has real constant set ID 23.  Both pairs should have     
 the same behavior.                                                      
 ANSYS will deactivate the current pair and keep its companion pair,     
 resulting in asymmetric contact.                                        
 Linear contact is defined
 Contact algorithm: Augmented Lagrange method
 Contact detection at: Gauss integration point
 Contact stiffness factor FKN                  10.000    
 The resulting initial contact stiffness      0.36517E+16
 Default penetration tolerance factor FTOLN   0.10000    
 The resulting penetration tolerance          0.63210E-03
 Default opening contact stiffness OPSF will be used.
 Default tangent stiffness factor FKT          1.0000    
 Use constant contact stiffness
 Default Max. friction stress TAUMAX          0.10000E+21
 Average contact surface length               0.96401E-02
 Average contact pair depth                   0.63210E-02
 Default pinball region factor PINB           0.25000    
 The resulting pinball region                 0.15803E-02
 Initial penetration/gap is excluded.
 Bonded contact (always) is defined.

 *** NOTE ***                            CP =       0.374   TIME= 04:52:10
 Max.  Initial penetration 1.110223025E-16 was detected between contact  
 element 9701 and target element 9713.                                   
 ****************************************
  

 *** NOTE ***                            CP =       0.374   TIME= 04:52:10
 Symmetric Deformable- deformable contact pair identified by real        
 constant set 23 and contact element type 22 has been set up.  The       
 companion pair has real constant set ID 22.  Both pairs should have     
 the same behavior.                                                      
 ANSYS will keep the current pair and deactivate its companion pair,     
 resulting in asymmetric contact.                                        
 Linear contact is defined
 Contact algorithm: Augmented Lagrange method
 Contact detection at: Gauss integration point
 Contact stiffness factor FKN                  10.000    
 The resulting initial contact stiffness      0.36517E+16
 Default penetration tolerance factor FTOLN   0.10000    
 The resulting penetration tolerance          0.61471E-03
 Default opening contact stiffness OPSF will be used.
 Default tangent stiffness factor FKT          1.0000    
 Use constant contact stiffness
 Default Max. friction stress TAUMAX          0.10000E+21
 Average contact surface length               0.95474E-02
 Average contact pair depth                   0.61471E-02
 Default pinball region factor PINB           0.25000    
 The resulting pinball region                 0.15368E-02
 Initial penetration/gap is excluded.
 Bonded contact (always) is defined.

 *** NOTE ***                            CP =       0.374   TIME= 04:52:10
 Max.  Initial penetration 0 was detected between contact element 9704   
 and target element 9695.                                                
 ****************************************
  

 *** NOTE ***                            CP =       0.374   TIME= 04:52:10
 Symmetric Deformable- deformable contact pair identified by real        
 constant set 24 and contact element type 24 has been set up.  The       
 companion pair has real constant set ID 25.  Both pairs should have     
 the same behavior.                                                      
 ANSYS will deactivate the current pair and keep its companion pair,     
 resulting in asymmetric contact.                                        
 Linear contact is defined
 Contact algorithm: Augmented Lagrange method
 Contact detection at: Gauss integration point
 Contact stiffness factor FKN                  10.000    
 The resulting initial contact stiffness      0.23217E+16
 Default penetration tolerance factor FTOLN   0.10000    
 The resulting penetration tolerance          0.64515E-03
 Default opening contact stiffness OPSF will be used.
 Default tangent stiffness factor FKT          1.0000    
 Use constant contact stiffness
 Default Max. friction stress TAUMAX          0.10000E+21
 Average contact surface length               0.96401E-02
 Average contact pair depth                   0.64515E-02
 Default pinball region factor PINB           0.25000    
 The resulting pinball region                 0.16129E-02
 Initial penetration/gap is excluded.
 Bonded contact (always) is defined.

 *** NOTE ***                            CP =       0.374   TIME= 04:52:10
 Max.  Initial penetration 1.110223025E-16 was detected between contact  
 element 9726 and target element 9740.                                   
 ****************************************
  

 *** NOTE ***                            CP =       0.374   TIME= 04:52:10
 Symmetric Deformable- deformable contact pair identified by real        
 constant set 25 and contact element type 24 has been set up.  The       
 companion pair has real constant set ID 24.  Both pairs should have     
 the same behavior.                                                      
 ANSYS will keep the current pair and deactivate its companion pair,     
 resulting in asymmetric contact.                                        
 Linear contact is defined
 Contact algorithm: Augmented Lagrange method
 Contact detection at: Gauss integration point
 Contact stiffness factor FKN                  10.000    
 The resulting initial contact stiffness      0.23217E+16
 Default penetration tolerance factor FTOLN   0.10000    
 The resulting penetration tolerance          0.60301E-03
 Default opening contact stiffness OPSF will be used.
 Default tangent stiffness factor FKT          1.0000    
 Use constant contact stiffness
 Default Max. friction stress TAUMAX          0.10000E+21
 Average contact surface length               0.95011E-02
 Average contact pair depth                   0.60301E-02
 Default pinball region factor PINB           0.25000    
 The resulting pinball region                 0.15075E-02
 Initial penetration/gap is excluded.
 Bonded contact (always) is defined.

 *** NOTE ***                            CP =       0.374   TIME= 04:52:10
 Max.  Initial penetration 5.551115123E-17 was detected between contact  
 element 9737 and target element 9721.                                   
 ****************************************
  
  
  

  
  
     D I S T R I B U T E D   D O M A I N   D E C O M P O S E R
  
  ...Number of elements: 9745
  ...Number of nodes:    18462
  ...Decompose to 2 CPU domains
  ...Element load balance ratio =     1.004


                      L O A D   S T E P   O P T I O N S

   LOAD STEP NUMBER. . . . . . . . . . . . . . . .     1
   THERMAL STRAINS INCLUDED IN THE LOAD VECTOR . .   YES
   PRINT OUTPUT CONTROLS . . . . . . . . . . . . .NO PRINTOUT
   DATABASE OUTPUT CONTROLS
      ITEM     FREQUENCY   COMPONENT
       ALL       NONE               
      NSOL        ALL               


 *** NOTE ***                            CP =       0.499   TIME= 04:52:10
 Symmetric Deformable- deformable contact pair identified by real        
 constant set 10 and contact element type 10 has been set up.  The       
 companion pair has real constant set ID 11.  Both pairs should have     
 the same behavior.                                                      
 ANSYS will deactivate the current pair and keep its companion pair,     
 resulting in asymmetric contact.                                        
 Linear contact is defined
 Contact algorithm: Augmented Lagrange method
 Contact detection at: Gauss integration point
 Contact stiffness factor FKN                  10.000    
 The resulting initial contact stiffness      0.21204E+16
 Default penetration tolerance factor FTOLN   0.10000    
 The resulting penetration tolerance          0.66025E-03
 Default opening contact stiffness OPSF will be used.
 Default tangent stiffness factor FKT          1.0000    
 Use constant contact stiffness
 Default Max. friction stress TAUMAX          0.10000E+21
 Average contact surface length               0.96435E-02
 Average contact pair depth                   0.66025E-02
 Default pinball region factor PINB           0.25000    
 The resulting pinball region                 0.16506E-02
 Initial penetration/gap is excluded.
 Bonded contact (always) is defined.

 *** NOTE ***                            CP =       0.499   TIME= 04:52:10
 Max.  Initial penetration 5.551115123E-17 was detected between contact  
 element 9195 and target element 9215.                                   
 ****************************************
  

 *** NOTE ***                            CP =       0.499   TIME= 04:52:10
 Symmetric Deformable- deformable contact pair identified by real        
 constant set 11 and contact element type 10 has been set up.  The       
 companion pair has real constant set ID 10.  Both pairs should have     
 the same behavior.                                                      
 ANSYS will keep the current pair and deactivate its companion pair,     
 resulting in asymmetric contact.                                        
 Linear contact is defined
 Contact algorithm: Augmented Lagrange method
 Contact detection at: Gauss integration point
 Contact stiffness factor FKN                  10.000    
 The resulting initial contact stiffness      0.21204E+16
 Default penetration tolerance factor FTOLN   0.10000    
 The resulting penetration tolerance          0.63201E-03
 Default opening contact stiffness OPSF will be used.
 Default tangent stiffness factor FKT          1.0000    
 Use constant contact stiffness
 Default Max. friction stress TAUMAX          0.10000E+21
 Average contact surface length               0.95657E-02
 Average contact pair depth                   0.63201E-02
 Default pinball region factor PINB           0.25000    
 The resulting pinball region                 0.15800E-02
 Initial penetration/gap is excluded.
 Bonded contact (always) is defined.

 *** NOTE ***                            CP =       0.499   TIME= 04:52:10
 Max.  Initial penetration 5.551115123E-17 was detected between contact  
 element 9202 and target element 9193.                                   
 ****************************************
  

 *** NOTE ***                            CP =       0.499   TIME= 04:52:10
 Symmetric Deformable- deformable contact pair identified by real        
 constant set 18 and contact element type 18 has been set up.  The       
 companion pair has real constant set ID 19.  Both pairs should have     
 the same behavior.                                                      
 ANSYS will deactivate the current pair and keep its companion pair,     
 resulting in asymmetric contact.                                        
 Linear contact is defined
 Contact algorithm: Augmented Lagrange method
 Contact detection at: Gauss integration point
 Contact stiffness factor FKN                  10.000    
 The resulting initial contact stiffness      0.21204E+16
 Default penetration tolerance factor FTOLN   0.10000    
 The resulting penetration tolerance          0.66025E-03
 Default opening contact stiffness OPSF will be used.
 Default tangent stiffness factor FKT          1.0000    
 Use constant contact stiffness
 Default Max. friction stress TAUMAX          0.10000E+21
 Average contact surface length               0.95451E-02
 Average contact pair depth                   0.66025E-02
 Default pinball region factor PINB           0.25000    
 The resulting pinball region                 0.16506E-02
 Initial penetration/gap is excluded.
 Bonded contact (always) is defined.

 *** NOTE ***                            CP =       0.499   TIME= 04:52:10
 Max.  Initial penetration 5.551115123E-17 was detected between contact  
 element 9492 and target element 9511.                                   
 ****************************************
  

 *** NOTE ***                            CP =       0.499   TIME= 04:52:10
 Symmetric Deformable- deformable contact pair identified by real        
 constant set 19 and contact element type 18 has been set up.  The       
 companion pair has real constant set ID 18.  Both pairs should have     
 the same behavior.                                                      
 ANSYS will keep the current pair and deactivate its companion pair,     
 resulting in asymmetric contact.                                        
 Linear contact is defined
 Contact algorithm: Augmented Lagrange method
 Contact detection at: Gauss integration point
 Contact stiffness factor FKN                  10.000    
 The resulting initial contact stiffness      0.21204E+16
 Default penetration tolerance factor FTOLN   0.10000    
 The resulting penetration tolerance          0.63201E-03
 Default opening contact stiffness OPSF will be used.
 Default tangent stiffness factor FKT          1.0000    
 Use constant contact stiffness
 Default Max. friction stress TAUMAX          0.10000E+21
 Average contact surface length               0.95657E-02
 Average contact pair depth                   0.63201E-02
 Default pinball region factor PINB           0.25000    
 The resulting pinball region                 0.15800E-02
 Initial penetration/gap is excluded.
 Bonded contact (always) is defined.

 *** NOTE ***                            CP =       0.499   TIME= 04:52:10
 Max.  Initial penetration 5.551115123E-17 was detected between contact  
 element 9498 and target element 9489.                                   
 ****************************************
  

 *** NOTE ***                            CP =       0.499   TIME= 04:52:10
 Symmetric Deformable- deformable contact pair identified by real        
 constant set 20 and contact element type 20 has been set up.  The       
 companion pair has real constant set ID 21.  Both pairs should have     
 the same behavior.                                                      
 ANSYS will deactivate the current pair and keep its companion pair,     
 resulting in asymmetric contact.                                        
 Linear contact is defined
 Contact algorithm: Augmented Lagrange method
 Contact detection at: Gauss integration point
 Contact stiffness factor FKN                  10.000    
 The resulting initial contact stiffness      0.27457E+16
 Default penetration tolerance factor FTOLN   0.10000    
 The resulting penetration tolerance          0.50988E-03
 Default opening contact stiffness OPSF will be used.
 Default tangent stiffness factor FKT          1.0000    
 Use constant contact stiffness
 Default Max. friction stress TAUMAX          0.10000E+21
 Average contact surface length               0.56749E-02
 Average contact pair depth                   0.50988E-02
 Default pinball region factor PINB           0.25000    
 The resulting pinball region                 0.12747E-02
 Initial penetration/gap is excluded.
 Bonded contact (always) is defined.

 *** NOTE ***                            CP =       0.499   TIME= 04:52:10
 Max.  Initial penetration 4.33680869E-19 was detected between contact   
 element 9544 and target element 9630.                                   
 ****************************************
  

 *** NOTE ***                            CP =       0.499   TIME= 04:52:10
 Symmetric Deformable- deformable contact pair identified by real        
 constant set 21 and contact element type 20 has been set up.  The       
 companion pair has real constant set ID 20.  Both pairs should have     
 the same behavior.                                                      
 ANSYS will keep the current pair and deactivate its companion pair,     
 resulting in asymmetric contact.                                        
 Linear contact is defined
 Contact algorithm: Augmented Lagrange method
 Contact detection at: Gauss integration point
 Contact stiffness factor FKN                  10.000    
 The resulting initial contact stiffness      0.27457E+16
 Default penetration tolerance factor FTOLN   0.10000    
 The resulting penetration tolerance          0.28811E-03
 Default opening contact stiffness OPSF will be used.
 Default tangent stiffness factor FKT          1.0000    
 Use constant contact stiffness
 Default Max. friction stress TAUMAX          0.10000E+21
 Average contact surface length               0.53034E-02
 Average contact pair depth                   0.28811E-02
 Default pinball region factor PINB           0.25000    
 The resulting pinball region                 0.72027E-03
 Initial penetration/gap is excluded.
 Bonded contact (always) is defined.

 *** NOTE ***                            CP =       0.499   TIME= 04:52:10
 Max.  Initial penetration 2.168404345E-19 was detected between contact  
 element 9557 and target element 9513.                                   
 ****************************************
  

 *** NOTE ***                            CP =       0.499   TIME= 04:52:10
 Symmetric Deformable- deformable contact pair identified by real        
 constant set 22 and contact element type 22 has been set up.  The       
 companion pair has real constant set ID 23.  Both pairs should have     
 the same behavior.                                                      
 ANSYS will deactivate the current pair and keep its companion pair,     
 resulting in asymmetric contact.                                        
 Linear contact is defined
 Contact algorithm: Augmented Lagrange method
 Contact detection at: Gauss integration point
 Contact stiffness factor FKN                  10.000    
 The resulting initial contact stiffness      0.36517E+16
 Default penetration tolerance factor FTOLN   0.10000    
 The resulting penetration tolerance          0.63210E-03
 Default opening contact stiffness OPSF will be used.
 Default tangent stiffness factor FKT          1.0000    
 Use constant contact stiffness
 Default Max. friction stress TAUMAX          0.10000E+21
 Average contact surface length               0.96401E-02
 Average contact pair depth                   0.63210E-02
 Default pinball region factor PINB           0.25000    
 The resulting pinball region                 0.15803E-02
 Initial penetration/gap is excluded.
 Bonded contact (always) is defined.

 *** NOTE ***                            CP =       0.499   TIME= 04:52:10
 Max.  Initial penetration 1.110223025E-16 was detected between contact  
 element 9701 and target element 9713.                                   
 ****************************************
  

 *** NOTE ***                            CP =       0.499   TIME= 04:52:10
 Symmetric Deformable- deformable contact pair identified by real        
 constant set 23 and contact element type 22 has been set up.  The       
 companion pair has real constant set ID 22.  Both pairs should have     
 the same behavior.                                                      
 ANSYS will keep the current pair and deactivate its companion pair,     
 resulting in asymmetric contact.                                        
 Linear contact is defined
 Contact algorithm: Augmented Lagrange method
 Contact detection at: Gauss integration point
 Contact stiffness factor FKN                  10.000    
 The resulting initial contact stiffness      0.36517E+16
 Default penetration tolerance factor FTOLN   0.10000    
 The resulting penetration tolerance          0.61471E-03
 Default opening contact stiffness OPSF will be used.
 Default tangent stiffness factor FKT          1.0000    
 Use constant contact stiffness
 Default Max. friction stress TAUMAX          0.10000E+21
 Average contact surface length               0.95474E-02
 Average contact pair depth                   0.61471E-02
 Default pinball region factor PINB           0.25000    
 The resulting pinball region                 0.15368E-02
 Initial penetration/gap is excluded.
 Bonded contact (always) is defined.

 *** NOTE ***                            CP =       0.499   TIME= 04:52:10
 Max.  Initial penetration 0 was detected between contact element 9704   
 and target element 9695.                                                
 ****************************************
  


                         ***********  PRECISE MASS SUMMARY  ***********

   TOTAL RIGID BODY MASS MATRIX ABOUT ORIGIN
               Translational mass               |   Coupled translational/rotational mass
         1.1864        0.0000        0.0000     |     0.0000      -0.16254      -0.50999E-03
         0.0000        1.1864        0.0000     |    0.16254        0.0000      -0.50507E-01
         0.0000        0.0000        1.1864     |    0.50999E-03   0.50507E-01    0.0000    
     ------------------------------------------ | ------------------------------------------
                                                |         Rotational mass (inertia)
                                                |    0.34762E-01   0.21711E-04  -0.69197E-02
                                                |    0.21711E-04   0.69499E-01   0.69849E-04
                                                |   -0.69197E-02   0.69849E-04   0.35058E-01

   TOTAL MASS =  1.1864    
     The mass principal axes coincide with the global Cartesian axes

   CENTER OF MASS (X,Y,Z)=  -0.42572E-01   0.42986E-03  -0.13700    

   TOTAL INERTIA ABOUT CENTER OF MASS
        0.12493E-01  -0.26826E-09  -0.38886E-07
       -0.26826E-09   0.45080E-01  -0.20975E-07
       -0.38886E-07  -0.20975E-07   0.32908E-01
     The inertia principal axes coincide with the global Cartesian axes


  *** MASS SUMMARY BY ELEMENT TYPE ***

  TYPE      MASS
     1  0.156209    
     2  0.442839    
     3  0.149421E-01
     4  0.149421E-01
     5  0.423781E-01
     6  0.442841    
     7  0.149421E-01
     8  0.149421E-01
     9  0.423781E-01

 Range of element maximum matrix coefficients in global coordinates
 Maximum = 2.28728583E+10 at element 9704.                               
 Minimum = 111286182 at element 8463.                                    

   *** ELEMENT MATRIX FORMULATION TIMES
     TYPE    NUMBER   ENAME      TOTAL CP  AVE CP

        1      5243  SOLID187      0.250   0.000048
        2      1855  SOLID187      0.109   0.000059
        3        22  SOLID187      0.000   0.000000
        4        21  SOLID187      0.000   0.000000
        5       108  SOLID187      0.000   0.000000
        6      1787  SOLID187      0.094   0.000052
        7        22  SOLID187      0.000   0.000000
        8        21  SOLID187      0.000   0.000000
        9       108  SOLID187      0.016   0.000144
       10        14  CONTA174      0.000   0.000000
       11        14  TARGE170      0.000   0.000000
       12       106  CONTA174      0.000   0.000000
       13       106  TARGE170      0.000   0.000000
       14        14  CONTA174      0.000   0.000000
       15        14  TARGE170      0.000   0.000000
       16        14  CONTA174      0.000   0.000000
       17        14  TARGE170      0.000   0.000000
       18        14  CONTA174      0.000   0.000000
       19        14  TARGE170      0.000   0.000000
       20        89  CONTA174      0.000   0.000000
       21        89  TARGE170      0.000   0.000000
       22        14  CONTA174      0.000   0.000000
       23        14  TARGE170      0.000   0.000000
       24        14  CONTA174      0.000   0.000000
       25        14  TARGE170      0.000   0.000000
 Time at end of element matrix formulation CP = 0.858005524.             

  BLOCK LANCZOS CALCULATION OF UP TO   14 EIGENVECTORS.
  NUMBER OF EQUATIONS              =        54954
  MAXIMUM WAVEFRONT                =          177
  MAXIMUM MODES STORED             =           14
  MINIMUM EIGENVALUE               =  0.20000E+05
  MAXIMUM EIGENVALUE               =  0.22000E+05


  Local memory allocated for solver              =     91.546 MB
  Local memory required for in-core solution     =     87.310 MB
  Local memory required for out-of-core solution =     32.700 MB

  Total memory allocated for solver              =    176.697 MB
  Total memory required for in-core solution     =    168.521 MB
  Total memory required for out-of-core solution =     63.641 MB

 *** NOTE ***                            CP =       1.513   TIME= 04:52:11
 The Distributed Sparse Matrix Solver used by the Block Lanczos          
 eigensolver is currently running in the in-core memory mode.  This      
 memory mode uses the most amount of memory in order to avoid using the  
 hard drive as much as possible, which most often results in the         
 fastest solution time.  This mode is recommended if enough physical     
 memory is present to accommodate all of the solver data.                

 *** NOTE ***                            CP =       3.058   TIME= 04:52:13
 Fewer modes than the requested number of modes ( 14 ) were computed.    
 The range specified (FREQB= 20000, FREQE= 22000) contains only 11       
 modes.                                                                  

 *** ANSYS - ENGINEERING ANALYSIS SYSTEM  RELEASE Release 19.2     19.2     ***
 DISTRIBUTED ANSYS Academic Teaching Introductory              

 01055371  VERSION=WINDOWS x64   04:52:13  FEB 12, 2019 CP=      3.058

 DISPOSITIVO--Modal (A5)                                                       



 *** FREQUENCIES FROM BLOCK LANCZOS ITERATION ***

  MODE    FREQUENCY (HERTZ)      



   FREQUENCY RANGE REQUESTED=   20000.0       22000.0    
    1     20051.04882694    
    2     20064.48612269    
    3     20581.95717471    
    4     20732.08502420    
    5     20849.34078455    
    6     20949.99965830    
    7     21007.16086823    
    8     21259.40167169    
    9     21430.12250298    
   10     21726.25065629    
   11     21786.92938188    

 *** ANSYS - ENGINEERING ANALYSIS SYSTEM  RELEASE Release 19.2     19.2     ***
 DISTRIBUTED ANSYS Academic Teaching Introductory              

 01055371  VERSION=WINDOWS x64   04:52:13  FEB 12, 2019 CP=      3.104

 DISPOSITIVO--Modal (A5)                                                       





          ***** PARTICIPATION FACTOR CALCULATION *****  X  DIRECTION
                                                                                  CUMULATIVE     RATIO EFF.MASS
  MODE   FREQUENCY       PERIOD      PARTIC.FACTOR     RATIO    EFFECTIVE MASS   MASS FRACTION   TO TOTAL MASS
     1     20051.0       0.49873E-04  -0.51374E-03    0.005866    0.263925E-06    0.296604E-04    0.222456E-06
     2     20064.5       0.49839E-04   0.26326E-03    0.003006    0.693043E-07    0.374490E-04    0.584150E-07
     3     20582.0       0.48586E-04  -0.87584E-01    1.000000    0.767087E-02    0.862107        0.646560E-02
     4     20732.1       0.48234E-04   0.39183E-04    0.000447    0.153534E-08    0.862107        0.129410E-08
     5     20849.3       0.47963E-04   0.66512E-03    0.007594    0.442384E-06    0.862157        0.372875E-06
     6     20950.0       0.47733E-04  -0.22079E-02    0.025209    0.487491E-05    0.862705        0.410895E-05
     7     21007.2       0.47603E-04   0.36036E-03    0.004115    0.129861E-06    0.862719        0.109457E-06
     8     21259.4       0.47038E-04  -0.34948E-01    0.399028    0.122138E-02    0.999981        0.102947E-02
     9     21430.1       0.46663E-04  -0.40648E-03    0.004641    0.165225E-06    0.999999        0.139264E-06
    10     21726.3       0.46027E-04   0.78394E-06    0.000009    0.614560E-12    0.999999        0.517998E-12
    11     21786.9       0.45899E-04   0.83666E-04    0.000955    0.700004E-08     1.00000        0.590017E-08
 -----------------------------------------------------------------------------------------------------------------
   sum                                                            0.889820E-02                    0.750009E-02
 -----------------------------------------------------------------------------------------------------------------



          ***** PARTICIPATION FACTOR CALCULATION *****  Y  DIRECTION
                                                                                  CUMULATIVE     RATIO EFF.MASS
  MODE   FREQUENCY       PERIOD      PARTIC.FACTOR     RATIO    EFFECTIVE MASS   MASS FRACTION   TO TOTAL MASS
     1     20051.0       0.49873E-04  -0.12730E-02    0.018504    0.162065E-05    0.338745E-03    0.136601E-05
     2     20064.5       0.49839E-04   0.69143E-02    0.100503    0.478081E-04    0.103315E-01    0.402963E-04
     3     20582.0       0.48586E-04  -0.15234E-03    0.002214    0.232067E-07    0.103363E-01    0.195604E-07
     4     20732.1       0.48234E-04  -0.90399E-04    0.001314    0.817205E-08    0.103380E-01    0.688803E-08
     5     20849.3       0.47963E-04   0.18782E-03    0.002730    0.352755E-07    0.103454E-01    0.297329E-07
     6     20950.0       0.47733E-04  -0.17167E-03    0.002495    0.294721E-07    0.103516E-01    0.248414E-07
     7     21007.2       0.47603E-04  -0.83398E-04    0.001212    0.695523E-08    0.103530E-01    0.586240E-08
     8     21259.4       0.47038E-04  -0.39223E-03    0.005701    0.153844E-06    0.103852E-01    0.129672E-06
     9     21430.1       0.46663E-04   0.68797E-01    1.000000    0.473305E-02    0.999677        0.398938E-02
    10     21726.3       0.46027E-04   0.12344E-02    0.017943    0.152377E-05    0.999996        0.128435E-05
    11     21786.9       0.45899E-04   0.14546E-03    0.002114    0.211584E-07     1.00000        0.178339E-07
 -----------------------------------------------------------------------------------------------------------------
   sum                                                            0.478428E-02                    0.403256E-02
 -----------------------------------------------------------------------------------------------------------------



          ***** PARTICIPATION FACTOR CALCULATION *****  Z  DIRECTION
                                                                                  CUMULATIVE     RATIO EFF.MASS
  MODE   FREQUENCY       PERIOD      PARTIC.FACTOR     RATIO    EFFECTIVE MASS   MASS FRACTION   TO TOTAL MASS
     1     20051.0       0.49873E-04   0.25516E-04    0.001343    0.651073E-09    0.168357E-05    0.548774E-09
     2     20064.5       0.49839E-04   0.87487E-04    0.004603    0.765389E-08    0.214753E-04    0.645128E-08
     3     20582.0       0.48586E-04  -0.13370E-03    0.007035    0.178750E-07    0.676971E-04    0.150664E-07
     4     20732.1       0.48234E-04   0.32714E-04    0.001721    0.107017E-08    0.704644E-04    0.902024E-09
     5     20849.3       0.47963E-04  -0.19005E-01    1.000000    0.361204E-03    0.934085        0.304450E-03
     6     20950.0       0.47733E-04  -0.33028E-03    0.017378    0.109088E-06    0.934367        0.919476E-07
     7     21007.2       0.47603E-04  -0.50208E-02    0.264177    0.252082E-04    0.999551        0.212474E-04
     8     21259.4       0.47038E-04  -0.35829E-03    0.018852    0.128374E-06    0.999883        0.108203E-06
     9     21430.1       0.46663E-04   0.21210E-03    0.011160    0.449846E-07     1.00000        0.379165E-07
    10     21726.3       0.46027E-04   0.52011E-05    0.000274    0.270516E-10     1.00000        0.228011E-10
    11     21786.9       0.45899E-04   0.11378E-04    0.000599    0.129461E-09     1.00000        0.109120E-09
 -----------------------------------------------------------------------------------------------------------------
   sum                                                            0.386722E-03                    0.325959E-03
 -----------------------------------------------------------------------------------------------------------------



          ***** PARTICIPATION FACTOR CALCULATION *****ROTX DIRECTION
                                                                                  CUMULATIVE     RATIO EFF.MASS
  MODE   FREQUENCY       PERIOD      PARTIC.FACTOR     RATIO    EFFECTIVE MASS   MASS FRACTION   TO TOTAL MASS
     1     20051.0       0.49873E-04  -0.22784E-03    0.018215    0.519126E-07    0.328237E-03    0.149339E-05
     2     20064.5       0.49839E-04   0.12572E-02    0.100509    0.158062E-05    0.103223E-01    0.454701E-04
     3     20582.0       0.48586E-04  -0.26294E-04    0.002102    0.691390E-09    0.103267E-01    0.198894E-07
     4     20732.1       0.48234E-04  -0.16405E-04    0.001311    0.269109E-09    0.103284E-01    0.774153E-08
     5     20849.3       0.47963E-04   0.27021E-04    0.002160    0.730152E-09    0.103330E-01    0.210045E-07
     6     20950.0       0.47733E-04  -0.31428E-04    0.002513    0.987732E-09    0.103392E-01    0.284144E-07
     7     21007.2       0.47603E-04  -0.17041E-04    0.001362    0.290380E-09    0.103411E-01    0.835345E-08
     8     21259.4       0.47038E-04  -0.71779E-04    0.005738    0.515220E-08    0.103736E-01    0.148215E-06
     9     21430.1       0.46663E-04   0.12509E-01    1.000000    0.156464E-03    0.999677        0.450104E-02
    10     21726.3       0.46027E-04   0.22455E-03    0.017952    0.504219E-07    0.999996        0.145050E-05
    11     21786.9       0.45899E-04   0.26505E-04    0.002119    0.702493E-09     1.00000        0.202088E-07
 -----------------------------------------------------------------------------------------------------------------
   sum                                                            0.158156E-03                    0.454971E-02
 -----------------------------------------------------------------------------------------------------------------



          ***** PARTICIPATION FACTOR CALCULATION *****ROTY DIRECTION
                                                                                  CUMULATIVE     RATIO EFF.MASS
  MODE   FREQUENCY       PERIOD      PARTIC.FACTOR     RATIO    EFFECTIVE MASS   MASS FRACTION   TO TOTAL MASS
     1     20051.0       0.49873E-04   0.11074E-03    0.005703    0.122634E-07    0.295894E-04    0.176454E-06
     2     20064.5       0.49839E-04  -0.36132E-04    0.001861    0.130552E-08    0.327394E-04    0.187847E-07
     3     20582.0       0.48586E-04   0.19419E-01    1.000000    0.377107E-03    0.909925        0.542606E-02
     4     20732.1       0.48234E-04  -0.52936E-05    0.000273    0.280222E-10    0.909925        0.403201E-09
     5     20849.3       0.47963E-04  -0.10215E-02    0.052605    0.104355E-05    0.912442        0.150153E-04
     6     20950.0       0.47733E-04  -0.26324E-04    0.001356    0.692952E-09    0.912444        0.997064E-08
     7     21007.2       0.47603E-04  -0.26738E-03    0.013769    0.714924E-07    0.912617        0.102868E-05
     8     21259.4       0.47038E-04   0.60172E-02    0.309856    0.362062E-04    0.999976        0.520959E-03
     9     21430.1       0.46663E-04   0.99194E-04    0.005108    0.983946E-08     1.00000        0.141577E-06
    10     21726.3       0.46027E-04   0.52234E-06    0.000027    0.272843E-12     1.00000        0.392584E-11
    11     21786.9       0.45899E-04  -0.12858E-04    0.000662    0.165316E-09     1.00000        0.237868E-08
 -----------------------------------------------------------------------------------------------------------------
   sum                                                            0.414452E-03                    0.596341E-02
 -----------------------------------------------------------------------------------------------------------------



          ***** PARTICIPATION FACTOR CALCULATION *****ROTZ DIRECTION
                                                                                  CUMULATIVE     RATIO EFF.MASS
  MODE   FREQUENCY       PERIOD      PARTIC.FACTOR     RATIO    EFFECTIVE MASS   MASS FRACTION   TO TOTAL MASS
     1     20051.0       0.49873E-04   0.62874E-03    0.219333    0.395320E-06    0.304526E-01    0.112761E-04
     2     20064.5       0.49839E-04  -0.22310E-03    0.077826    0.497724E-07    0.342867E-01    0.141971E-05
     3     20582.0       0.48586E-04   0.47027E-04    0.016405    0.221150E-08    0.344571E-01    0.630810E-07
     4     20732.1       0.48234E-04   0.30298E-03    0.105691    0.917941E-07    0.415283E-01    0.261834E-05
     5     20849.3       0.47963E-04  -0.83533E-06    0.000291    0.697777E-12    0.415283E-01    0.199034E-10
     6     20950.0       0.47733E-04   0.79123E-05    0.002760    0.626039E-10    0.415331E-01    0.178572E-08
     7     21007.2       0.47603E-04  -0.19979E-04    0.006970    0.399177E-09    0.415639E-01    0.113861E-07
     8     21259.4       0.47038E-04   0.12760E-04    0.004451    0.162819E-09    0.415764E-01    0.464427E-08
     9     21430.1       0.46663E-04  -0.28666E-02    1.000000    0.821749E-05    0.674594        0.234396E-03
    10     21726.3       0.46027E-04  -0.55989E-04    0.019532    0.313482E-08    0.674835        0.894177E-07
    11     21786.9       0.45899E-04  -0.20545E-02    0.716711    0.422112E-05     1.00000        0.120403E-03
 -----------------------------------------------------------------------------------------------------------------
   sum                                                            0.129815E-04                    0.370284E-03
 -----------------------------------------------------------------------------------------------------------------





 *** NOTE ***                            CP =       3.104   TIME= 04:52:13
 The modes requested are mass normalized (Nrmkey on MODOPT).  However,   
 the modal masses and kinetic energies below are calculated with unit    
 normalized modes.                                                       

        ***** MODAL MASSES, KINETIC ENERGIES, AND TRANSLATIONAL EFFECTIVE MASSES SUMMARY *****

                                                                         EFFECTIVE MASS
  MODE  FREQUENCY   MODAL MASS     KENE      |      X-DIR      RATIO%   Y-DIR      RATIO%   Z-DIR      RATIO% 
     1  0.2005E+05  0.5235E-01  0.4154E+09   |    0.2639E-06    0.00  0.1621E-05    0.00  0.6511E-09    0.00
     2  0.2006E+05  0.5819E-01  0.4624E+09   |    0.6930E-07    0.00  0.4781E-04    0.00  0.7654E-08    0.00
     3  0.2058E+05  0.1542      0.1289E+10   |    0.7671E-02    0.65  0.2321E-07    0.00  0.1788E-07    0.00
     4  0.2073E+05  0.1767E-01  0.1499E+09   |    0.1535E-08    0.00  0.8172E-08    0.00  0.1070E-08    0.00
     5  0.2085E+05  0.1607      0.1379E+10   |    0.4424E-06    0.00  0.3528E-07    0.00  0.3612E-03    0.03
     6  0.2095E+05  0.1853E-01  0.1605E+09   |    0.4875E-05    0.00  0.2947E-07    0.00  0.1091E-06    0.00
     7  0.2101E+05  0.8807E-01  0.7672E+09   |    0.1299E-06    0.00  0.6955E-08    0.00  0.2521E-04    0.00
     8  0.2126E+05  0.6855E-01  0.6116E+09   |    0.1221E-02    0.10  0.1538E-06    0.00  0.1284E-06    0.00
     9  0.2143E+05  0.7520E-01  0.6817E+09   |    0.1652E-06    0.00  0.4733E-02    0.40  0.4498E-07    0.00
    10  0.2173E+05  0.1735E-01  0.1616E+09   |    0.6146E-12    0.00  0.1524E-05    0.00  0.2705E-10    0.00
    11  0.2179E+05  0.3080E-01  0.2886E+09   |    0.7000E-08    0.00  0.2116E-07    0.00  0.1295E-09    0.00
 --------------------------------------------------------------------------------------------------------------
   sum                                       |    0.8898E-02    0.75  0.4784E-02    0.40  0.3867E-03    0.03
 --------------------------------------------------------------------------------------------------------------


 *** ANSYS BINARY FILE STATISTICS
  BUFFER SIZE USED= 16384
        2.375 MB WRITTEN ON ELEMENT SAVED DATA FILE: file0.esav
       18.438 MB WRITTEN ON ASSEMBLED MATRIX FILE: file0.full
        3.125 MB WRITTEN ON MODAL MATRIX FILE: file0.mode
        4.812 MB WRITTEN ON RESULTS FILE: file0.rst
 *************** Write FE CONNECTORS *********

 WRITE OUT CONSTRAINT EQUATIONS TO FILE= file.ce                                                                                                                                                                                                                                                             

 *GET  _NMODALSOLPROC  FROM  ACTI  ITEM=NUMC       VALUE=  2.00000000    

 FINISH SOLUTION PROCESSING


 ***** ROUTINE COMPLETED *****  CP =         3.182



 PRINTOUT RESUMED BY /GOP

 *GET  _WALLASOL  FROM  ACTI  ITEM=TIME WALL  VALUE=  4.87027778    

 *** ANSYS - ENGINEERING ANALYSIS SYSTEM  RELEASE Release 19.2     19.2     ***
 DISTRIBUTED ANSYS Academic Teaching Introductory              

 01055371  VERSION=WINDOWS x64   04:52:13  FEB 12, 2019 CP=      3.182

 DISPOSITIVO--Modal (A5)                                                       



          ***** ANSYS RESULTS INTERPRETATION (POST1) *****

 *** NOTE ***                            CP =       3.182   TIME= 04:52:13
 Reading results into the database (SET command) will update the current 
 displacement and force boundary conditions in the database with the     
 values from the results file for that load set.  Note that any          
 subsequent solutions will use these values unless action is taken to    
 either SAVE the current values or not overwrite them (/EXIT,NOSAVE).    

 PRINTOUT RESUMED BY /GOP

 Set Encoding of XML File to:ISO-8859-1

 Set Output of XML File to:
     PARM,     ,     ,     ,     ,     ,     ,     ,     ,     ,     ,     ,
         ,     ,     ,     ,     ,     ,     ,

 DATABASE WRITTEN ON FILE  parm.xml                                                                                                                                                                                                                                                            

 EXIT THE ANSYS POST1 DATABASE PROCESSOR


 ***** ROUTINE COMPLETED *****  CP =         3.214



 PRINTOUT RESUMED BY /GOP

 *GET  _WALLDONE  FROM  ACTI  ITEM=TIME WALL  VALUE=  4.87027778    

 PARAMETER _PREPTIME =     0.000000000    

 PARAMETER _SOLVTIME =     3.000000000    

 PARAMETER _POSTTIME =     0.000000000    

 PARAMETER _TOTALTIM =     3.000000000    

 EXIT ANSYS WITHOUT SAVING DATABASE


 NUMBER OF WARNING MESSAGES ENCOUNTERED=          3
 NUMBER OF ERROR   MESSAGES ENCOUNTERED=          0

+--------- D I S T R I B U T E D   A N S Y S   S T A T I S T I C S ------------+

Release: Release 19.2       Build: 19.2       Update: UP20180808   Platform: WINDOWS x64 
Date Run: 02/12/2019   Time: 04:52     Process ID: 1276
Operating System: Windows 7 Service Pack 1 (Build: 7601)

Processor Model: Intel(R) Core(TM) i7-4790 CPU @ 3.60GHz

Compiler: Intel(R) FORTRAN Compiler Version 17.0.4  (Build: 20170411)
          Intel(R) C/C++ Compiler Version 17.0.4  (Build: 20170411)
          Intel(R) Math Kernel Library Version 2017.0.3 Product Build 20170413

Number of machines requested            :    1
Total number of cores available         :    8
Number of physical cores available      :    4
Number of processes requested           :    2
Number of threads per process requested :    1
Total number of cores requested         :    2 (Distributed Memory Parallel)               
MPI Type: INTELMPI
MPI Version: Intel(R) MPI Library 2017 Update 3 for Windows* OS


GPU Acceleration: Not Requested

Job Name: file0
Input File: dummy.dat

  Core                Machine Name   Working Directory
 -----------------------------------------------------
     0                 chandler-PC   C:\Users\chandler\Documents\analise_harmonica_transportador\_ProjectScratch\Scr2B18
     1                 chandler-PC   C:\Users\chandler\Documents\analise_harmonica_transportador\_ProjectScratch\Scr2B18
 
Latency time from master to core     1 =    0.494 microseconds
 
Communication speed from master to core     1 =  6703.48 MB/sec

Total CPU time for main thread                    :        3.0 seconds
Total CPU time summed for all threads             :        3.4 seconds

Elapsed time spent pre-processing model (/PREP7)  :        0.0 seconds
Elapsed time spent solution - preprocessing       :        0.1 seconds
Elapsed time spent computing solution             :        2.6 seconds
Elapsed time spent solution - postprocessing      :        0.0 seconds
Elapsed time spent post-processing model (/POST1) :        0.0 seconds
 
Eigensolver used                                  :            Block Lanczos
Equation solver computational rate                :       24.0 Gflops
Equation solver effective I/O rate                :       12.3 GB/sec

Maximum total memory used                         :      548.0 MB
Maximum total memory allocated                    :     3136.0 MB
Total physical memory available                   :         16 GB

Total amount of I/O written to disk               :        0.1 GB
Total amount of I/O read from disk                :        0.1 GB

+------ E N D   D I S T R I B U T E D   A N S Y S   S T A T I S T I C S -------+


 *---------------------------------------------------------------------------*
 |                                                                           |
 |                       DISTRIBUTED ANSYS RUN COMPLETED                     |
 |                                                                           |
 |---------------------------------------------------------------------------|
 |                                                                           |
 | Ansys Release 19.2          Build 19.2         UP20180808     WINDOWS x64 |
 |                                                                           |
 |---------------------------------------------------------------------------|
 |                                                                           |
 | Database Requested(-db)  1024 MB    Scratch Memory Requested      1024 MB |
 | Maximum Database Used      11 MB    Maximum Scratch Memory Used    282 MB |
 |                                                                           |
 |---------------------------------------------------------------------------|
 |                                                                           |
 |        CP Time      (sec) =          3.416       Time  =  04:52:13        |
 |        Elapsed Time (sec) =          5.000       Date  =  02/12/2019      |
 |                                                                           |
 *---------------------------------------------------------------------------*
